*Heading
** Job name: SENT-specimen-1 Model name: Model-1
** Generated by: Abaqus/CAE 6.14-1
*Preprint, echo=NO, model=NO, history=NO, contact=NO
**
** PARTS
**
*Part, name=SENT
*Node
      1,           0.,           0.
      2, 0.00139999995,           0.
      3, 0.0027999999,           0.
      4, 0.00419999985,           0.
      5, 0.0055999998,           0.
      6, 0.00700000022,           0.
      7, 0.0083999997,           0.
      8, 0.00980000012,           0.
      9, 0.0111999996,           0.
     10,       0.0126,           0.
     11, 0.0140000004,           0.
     12,           0., 0.00138613861
     13, 0.00139999995, 0.00138613861
     14, 0.0027999999, 0.00138613861
     15, 0.00419999985, 0.00138613861
     16, 0.0055999998, 0.00138613861
     17, 0.00700000022, 0.00138613861
     18, 0.0083999997, 0.00138613861
     19, 0.00980000012, 0.00138613861
     20, 0.0111999996, 0.00138613861
** ... 1102 like lines cut
*Element, type=CPS4R
   1,    1,    2,   13,   12
   2,    2,    3,   14,   13
   3,    3,    4,   15,   14
   4,    4,    5,   16,   15
   5,    5,    6,   17,   16
   6,    6,    7,   18,   17
   7,    7,    8,   19,   18
   8,    8,    9,   20,   19
   9,    9,   10,   21,   20
  10,   10,   11,   22,   21
  11,   12,   13,   24,   23
  12,   13,   14,   25,   24
  13,   14,   15,   26,   25
  14,   15,   16,   27,   26
  15,   16,   17,   28,   27
  16,   17,   18,   29,   28
  17,   18,   19,   30,   29
  18,   19,   20,   31,   30
  19,   20,   21,   32,   31
  20,   21,   22,   33,   32
** ... 990 like lines cut
*Nset, nset=Set-1, generate
    1,  1122,     1
*Elset, elset=Set-1, generate
    1,  1010,     1
*Elset, elset=Cracked, generate
 507,  510,    1
** Section: Section-1
*Solid Section, elset=Set-1, material="SENT specimen material"
,
*End Part
**  
**
** ASSEMBLY
**
*Assembly, name=Assembly
**  
*Instance, name=SENT-1, part=SENT
*End Instance
**  
*Nset, nset=Bottom, instance=SENT-1, generate
  1,  11,   1
*Elset, elset=Bottom, instance=SENT-1, generate
  1,  10,   1
*Nset, nset=Top, instance=SENT-1, generate
 1112,  1122,     1
*Elset, elset=Top, instance=SENT-1, generate
 1001,  1010,     1
*End Assembly
** 
** MATERIALS
** 
*Material, name="SENT specimen material"
*Density
7860.,
*Elastic
 2.07e+11, 0.3
** ----------------------------------------------------------------
** 
** STEP: Step-1
** 
*Step, name=Step-1, nlgeom=YES
*Dynamic, Explicit
, 1.
*Bulk Viscosity
0.06, 1.2
** 
** BOUNDARY CONDITIONS
** 
** Name: Bottom BC Type: Velocity/Angular velocity
*Boundary, type=VELOCITY
Bottom, 2, 2, -0.0005
** Name: Top BC Type: Velocity/Angular velocity
*Boundary, type=VELOCITY
Top, 2, 2, 0.0005
** 
** OUTPUT REQUESTS
** 
*Restart, write, number interval=1, time marks=NO
** 
** FIELD OUTPUT: F-Output-1
** 
*Output, field, variable=PRESELECT
** 
** HISTORY OUTPUT: H-Output-1
** 
*Output, history, variable=PRESELECT
*End Step
