*Heading
** Job name: Notched-plate-manual Model name: Model-1
** Generated by: Abaqus/CAE 6.14-1
*Preprint, echo=NO, model=NO, history=NO, contact=NO
**
** PARTS
**
*Part, name=Notched-plate
*Node
      1, 0.0949999988,  0.200000003
      2, 0.0949999988,  0.144397005
      3,  0.150000006,  0.144397005
      4,  0.150000006,  0.200000003
      5,  0.150000006,  0.104396999
      6, 0.0949999988,  0.104396999
      7, 0.0949999988,           0.
      8,  0.150000006,           0.
      9,           0.,  0.144397005
     10, 0.0549999997,  0.144397005
     11, 0.0549999997,  0.200000003
     12,           0.,  0.200000003
     13, 0.0549999997,  0.104396999
     14,           0.,  0.104396999
     15,           0.,           0.
     16, 0.0549999997,           0.
     17,  0.075000003,  0.140000001
     18, 0.0949999988,  0.196028352
     19, 0.0949999988,  0.192056715
     20, 0.0949999988,  0.188085079
** ... 1906 like lines cut
*Element, type=CPS4R
  1,   1,  18, 371,  69
  2,  18,  19, 372, 371
  3,  19,  20, 373, 372
  4,  20,  21, 374, 373
  5,  21,  22, 375, 374
  6,  22,  23, 376, 375
  7,  23,  24, 377, 376
  8,  24,  25, 378, 377
  9,  25,  26, 379, 378
 10,  26,  27, 380, 379
 11,  27,  28, 381, 380
 12,  28,  29, 382, 381
 13,  29,  30, 383, 382
 14,  30,   2,  31, 383
 15,  69, 371, 384,  68
 16, 371, 372, 385, 384
 17, 372, 373, 386, 385
 18, 373, 374, 387, 386
 19, 374, 375, 388, 387
 20, 375, 376, 389, 388
** ... 1804 like lines cut
*Nset, nset=Notched-plate-geometry, generate
    1,  1926,     1
*Elset, elset=Notched-plate-geometry, generate
    1,  1824,     1
*Elset, elset=Cracked-elements
 784,
** Section: Plate-section
*Solid Section, elset=Notched-plate-geometry, material=Test
,
*End Part
**  
**
** ASSEMBLY
**
*Assembly, name=Assembly
**  
*Instance, name=Notched-plate-1, part=Notched-plate
*End Instance
**  
*Nset, nset=Bottom, instance=Notched-plate-1
   7,   8,  15,  16, 108, 109, 110, 111, 112, 113, 114, 115, 116, 117, 118, 119
 120, 236, 237, 238, 239, 240, 241, 242, 243, 244, 245, 246, 247, 248, 316, 317
 318, 319, 320, 321, 322, 323
*Elset, elset=Bottom, instance=Notched-plate-1
  547,  548,  549,  550,  551,  552,  553,  554,  555,  556,  557,  558,  559,  560, 1107, 1108
 1109, 1110, 1111, 1112, 1113, 1114, 1115, 1116, 1117, 1118, 1119, 1120, 1387, 1413, 1439, 1465
 1491, 1517, 1543, 1569, 1595
*Elset, elset="Cracked elements", instance=Notched-plate-1, generate
 780,  784,    1
*Nset, nset=Top, instance=Notched-plate-1
   1,   4,  11,  12,  57,  58,  59,  60,  61,  62,  63,  64,  65,  66,  67,  68
  69, 172, 173, 174, 175, 176, 177, 178, 179, 180, 181, 182, 183, 184, 274, 275
 276, 277, 278, 279, 280, 281, 282
*Elset, elset=Top, instance=Notched-plate-1
    1,   15,   29,   43,   57,   71,   85,   99,  113,  127,  141,  155,  169,  183,  743,  744
  745,  746,  747,  748,  749,  750,  751,  752,  753,  754,  755,  756, 1134, 1148, 1162, 1176
 1190, 1204, 1218, 1232, 1246, 1260
*End Assembly
** 
** MATERIALS
** 
*Material, name=Test
*Density
1.,
*Elastic
1.,0.
** ----------------------------------------------------------------
** 
** STEP: Step-1
** 
*Step, name=Step-1, nlgeom=NO
*Dynamic, Explicit
, 1.
*Bulk Viscosity
0.06, 1.2
** 
** BOUNDARY CONDITIONS
** 
** Name: Bottom-bc Type: Velocity/Angular velocity
*Boundary, type=VELOCITY
Bottom, 2, 2, -0.001
** Name: Top-bc Type: Velocity/Angular velocity
*Boundary, type=VELOCITY
Top, 2, 2, 0.001
** 
** OUTPUT REQUESTS
** 
*Restart, write, number interval=1, time marks=NO
** 
** FIELD OUTPUT: F-Output-1
** 
*Output, field, variable=PRESELECT
** 
** HISTORY OUTPUT: H-Output-1
** 
*Output, history, variable=PRESELECT
*End Step
