*Heading
** Job name: Plate_with_a_hole Model name: Model-1
** Generated by: Abaqus/CAE 6.14-1
*Preprint, echo=NO, model=NO, history=NO, contact=NO
**
** PARTS
**
*Part, name="Plate with a hole"
*Node
      1,  0.150000006,  0.400000006
      2,           0.,  0.400000006
      3,           0.,           0.
      4,  0.150000006,           0.
      5,  0.214644656,   0.46464467
      6,  0.214644656,   0.53535533
      7,  0.150000006,  0.600000024
      8,           0.,  0.600000024
      9,  0.349999994,           0.
     10,  0.349999994,  0.400000006
     11,   0.28535533,   0.46464467
     12,   0.28535533,   0.53535533
     13,  0.349999994,  0.600000024
     14,  0.150000006,           1.
     15,           0.,           1.
     16,          0.5,           0.
     17,          0.5,  0.400000006
     18,  0.300000012,          0.5
     19,  0.349999994,           1.
     20,          0.5,  0.600000024
** ... 3336 like lines cut
*Element, type=CPS4R
  1,   1,  22, 544, 109
  2,  22,  23, 545, 544
  3,  23,  24, 546, 545
  4,  24,  25, 547, 546
  5,  25,  26, 548, 547
  6,  26,  27, 549, 548
  7,  27,  28, 550, 549
  8,  28,  29, 551, 550
  9,  29,  30, 552, 551
 10,  30,  31, 553, 552
 11,  31,  32, 554, 553
 12,  32,   2,  33, 554
 13, 109, 544, 555, 108
 14, 544, 545, 556, 555
 15, 545, 546, 557, 556
 16, 546, 547, 558, 557
 17, 547, 548, 559, 558
 18, 548, 549, 560, 559
 19, 549, 550, 561, 560
 20, 550, 551, 562, 561
** ... 3191 like lines cut
*Nset, nset=Plate-hole, generate
    1,  3356,     1
*Elset, elset=Plate-hole, generate
    1,  3211,     1
** Section: Section-1
*Solid Section, elset=Plate-hole, material=Test
,
*End Part
**  
**
** ASSEMBLY
**
*Assembly, name=Assembly
**  
*Instance, name="Plate with a hole-1", part="Plate with a hole"
*End Instance
**  
*Nset, nset=Bottom, instance="Plate with a hole-1"
   3,   4,   9,  16,  66,  67,  68,  69,  70,  71,  72,  73,  74,  75,  76, 214
 215, 216, 217, 218, 219, 220, 221, 222, 223, 224, 225, 351, 352, 353, 354, 355
 356, 357, 358, 359, 360, 361
*Elset, elset=Bottom, instance="Plate with a hole-1"
  397,  398,  399,  400,  401,  402,  403,  404,  405,  406,  407,  408,  656,  690,  724,  758
  792,  826,  860,  894,  928,  962,  996, 1030, 1064, 1721, 1755, 1789, 1823, 1857, 1891, 1925
 1959, 1993, 2027, 2061, 2095
*Nset, nset=Top, instance="Plate with a hole-1"
  14,  15,  19,  21, 307, 308, 309, 310, 311, 312, 313, 314, 315, 316, 317, 464
 465, 466, 467, 468, 469, 470, 471, 472, 473, 474, 475, 533, 534, 535, 536, 537
 538, 539, 540, 541, 542, 543
*Elset, elset=Top, instance="Plate with a hole-1"
 1313, 1347, 1381, 1415, 1449, 1483, 1517, 1551, 1585, 1619, 1653, 1687, 2227, 2261, 2295, 2329
 2363, 2397, 2431, 2465, 2499, 2533, 2567, 2601, 2635, 3200, 3201, 3202, 3203, 3204, 3205, 3206
 3207, 3208, 3209, 3210, 3211
*End Assembly
** 
** MATERIALS
** 
*Material, name=Test
*Density
1.,
*Elastic
1.,0.
** ----------------------------------------------------------------
** 
** STEP: Step-1
** 
*Step, name=Step-1, nlgeom=NO
*Dynamic, Explicit
, 10.
*Bulk Viscosity
0.06, 1.2
** 
** BOUNDARY CONDITIONS
** 
** Name: Velocity Top Type: Velocity/Angular velocity
*Boundary, type=VELOCITY
Top, 2, 2, 0.01
** Name: Velocity bottom Type: Velocity/Angular velocity
*Boundary, type=VELOCITY
Bottom, 2, 2, -0.01
** 
** OUTPUT REQUESTS
** 
*Restart, write, number interval=1, time marks=NO
** 
** FIELD OUTPUT: F-Output-1
** 
*Output, field, variable=PRESELECT
** 
** HISTORY OUTPUT: H-Output-1
** 
*Output, history, variable=PRESELECT
*End Step
