*Heading
** Job name: Plate_with_a_hole Model name: Model-1
** Generated by: Abaqus/CAE 6.14-1
*Preprint, echo=NO, model=NO, history=NO, contact=NO
**
** PARTS
**
*Part, name="Plate with a hole"
*Node
      1,  0.281610578,  0.183077395
      2,          0.5,  0.198487237
      3,          0.5,  0.499607176
      4,  0.300000012,          0.5
      5,  0.257497311,  0.450565279
      6,  0.296615571,           0.
      7,          0.5,           0.
      8,          0.5,  0.802381456
      9,  0.279949456,  0.818595469
     10,  0.256281078,  0.549603939
     11,           0.,   0.19817549
     12,  0.200008094,  0.500899971
     13,           0.,  0.501345336
     14,           0.,           0.
     15,          0.5,           1.
     16,  0.294395953,           1.
     17,           0.,  0.800410748
     18,           0.,           1.
     19,  0.258877367,  0.437586099
     20,  0.260747313,  0.424370974
** ... 1280 like lines cut
*Element, type=CPS4R
   1,   20,   21,  301,  291
   2,   21,   22,  302,  301
   3,   22,   23,  303,  302
   4,   23,   24,  304,  303
   5,   24,   25,  305,  304
   6,   25,   26,  306,  305
   7,   26,   27,  307,  306
   8,   27,   28,  308,  307
   9,   28,   29,  309,  308
  10,   29,   30,  310,  309
  11,   30,   31,  311,  310
  12,   31,   32,  312,  311
  13,   32,    1,   33,  312
  14,  291,  301,  290,  278
  15,  301,  302,  289,  290
  16,  302,  303,  288,  289
  17,  303,  304,  287,  288
  18,  304,  305,  286,  287
  19,  305,  306,  285,  286
  20,  306,  307,  284,  285
** ... 1197 like lines cut
*Nset, nset=Plate-hole, generate
    1,  1300,     1
*Elset, elset=Plate-hole, generate
    1,  1217,     1
** Section: Section-1
*Solid Section, elset=Plate-hole, material=Test
,
*End Part
**  
**
** ASSEMBLY
**
*Assembly, name=Assembly
**  
*Instance, name="Plate with a hole-1", part="Plate with a hole"
*End Instance
**  
*Nset, nset=Bottom, instance="Plate with a hole-1"
   6,   7,  14,  77,  78,  79,  80,  81,  82,  83,  84,  85, 185, 186, 187, 188
 189, 190, 191, 192, 193, 194, 195, 196, 197
*Elset, elset=Bottom, instance="Plate with a hole-1"
 245, 246, 247, 248, 249, 250, 251, 252, 253, 254, 757, 758, 759, 760, 761, 762
 763, 764, 765, 766, 767, 768, 769, 770
*Nset, nset=Top, instance="Plate with a hole-1"
  15,  16,  18, 207, 208, 209, 210, 211, 212, 213, 214, 215, 216, 256, 257, 258
 259, 260, 261, 262, 263, 264, 265, 266, 267, 268
*Elset, elset=Top, instance="Plate with a hole-1"
  870,  871,  872,  873,  874,  875,  876,  877,  878,  879,  880, 1204, 1205, 1206, 1207, 1208
 1209, 1210, 1211, 1212, 1213, 1214, 1215, 1216, 1217
*End Assembly
** 
** MATERIALS
** 
*Material, name=Test
*Density
1.,
*Elastic
1.,0.
** ----------------------------------------------------------------
** 
** STEP: Step-1
** 
*Step, name=Step-1, nlgeom=NO
*Dynamic, Explicit
, 10.
*Bulk Viscosity
0.06, 1.2
** 
** BOUNDARY CONDITIONS
** 
** Name: Velocity Top Type: Velocity/Angular velocity
*Boundary, type=VELOCITY
Top, 2, 2, 0.01
** Name: Velocity bottom Type: Velocity/Angular velocity
*Boundary, type=VELOCITY
Bottom, 2, 2, -0.01
** 
** OUTPUT REQUESTS
** 
*Restart, write, number interval=1, time marks=NO
** 
** FIELD OUTPUT: F-Output-1
** 
*Output, field, variable=PRESELECT
** 
** HISTORY OUTPUT: H-Output-1
** 
*Output, history, variable=PRESELECT
*End Step
