*Heading
** Job name: Solid-wave-inclined Model name: Model-1
** Generated by: Abaqus/CAE 6.14-1
*Preprint, echo=NO, model=NO, history=NO, contact=NO
**
** PARTS
**
*Part, name=Rectangle
*Node
      1,           0.,           0.
      2,  0.211225703,  0.121951222
      3,  0.422451407,  0.243902445
      4,  0.633677125,  0.365853667
      5,  0.844902813,   0.48780489
      6,    1.0561285,  0.609756112
      7,   1.26735425,  0.731707335
      8,      1.47858,  0.853658557
      9,   1.68980563,  0.975609779
     10,   1.90103137,     1.097561
     11,     2.112257,   1.21951222
     12,   2.32348275,   1.34146345
     13,    2.5347085,   1.46341467
     14,   2.74593425,   1.58536589
     15,      2.95716,   1.70731711
     16,   3.16838551,   1.82926834
     17,   3.37961125,   1.95121956
     18,     3.590837,   2.07317066
     19,   3.80206275,     2.195122
     20,    4.0132885,   2.31707311
** ... 190 like lines cut
*Element, type=CPS4R
  1,   1,   2,  44,  43
  2,   2,   3,  45,  44
  3,   3,   4,  46,  45
  4,   4,   5,  47,  46
  5,   5,   6,  48,  47
  6,   6,   7,  49,  48
  7,   7,   8,  50,  49
  8,   8,   9,  51,  50
  9,   9,  10,  52,  51
 10,  10,  11,  53,  52
 11,  11,  12,  54,  53
 12,  12,  13,  55,  54
 13,  13,  14,  56,  55
 14,  14,  15,  57,  56
 15,  15,  16,  58,  57
 16,  16,  17,  59,  58
 17,  17,  18,  60,  59
 18,  18,  19,  61,  60
 19,  19,  20,  62,  61
 20,  20,  21,  63,  62
** ... 144 like lines cut
*Nset, nset=Set-1, generate
   1,  210,    1
*Elset, elset=Set-1, generate
   1,  164,    1
** Section: Rectangle section
*Solid Section, elset=Set-1, material=Test
,
*End Part
**  
**
** ASSEMBLY
**
*Assembly, name=Assembly
**  
*Instance, name=Rectangle-1, part=Rectangle
*End Instance
**  
*Nset, nset=Left, instance=Rectangle-1, generate
   1,  169,   42
*Elset, elset=Left, instance=Rectangle-1, generate
   1,  124,   41
*End Assembly
** 
** MATERIALS
** 
*Material, name=Test
*Density
1.,
*Elastic
1.,0.
** ----------------------------------------------------------------
** 
** STEP: Step-1
** 
*Step, name=Step-1, nlgeom=NO
*Dynamic, Explicit
, 10.
*Bulk Viscosity
0.06, 1.2
** 
** BOUNDARY CONDITIONS
** 
** Name: Left BC Type: Velocity/Angular velocity
*Boundary, type=VELOCITY
Left, 1, 1, 0.00866025
Left, 2, 2, 0.005
** 
** OUTPUT REQUESTS
** 
*Restart, write, number interval=1, time marks=NO
** 
** FIELD OUTPUT: F-Output-1
** 
*Output, field, variable=PRESELECT
** 
** HISTORY OUTPUT: H-Output-1
** 
*Output, history, variable=PRESELECT, frequency=1
*End Step
