*Heading
** Job name: Square-mesh Model name: Model-1
** Generated by: Abaqus/CAE 6.14-1
*Preprint, echo=NO, model=NO, history=NO, contact=NO
**
** PARTS
**
*Part, name="Square plate"
*Node
      1,           0.,           0.
      2, 0.0909090936,           0.
      3,  0.181818187,           0.
      4,  0.272727281,           0.
      5,  0.363636374,           0.
      6,  0.454545468,           0.
      7,  0.545454562,           0.
      8,  0.636363626,           0.
      9,  0.727272749,           0.
     10,  0.818181813,           0.
     11,  0.909090936,           0.
     12,           1.,           0.
     13,           0., 0.0909090936
     14, 0.0909090936, 0.0909090936
     15,  0.181818187, 0.0909090936
     16,  0.272727281, 0.0909090936
     17,  0.363636374, 0.0909090936
     18,  0.454545468, 0.0909090936
     19,  0.545454562, 0.0909090936
     20,  0.636363626, 0.0909090936
** ... 124 like lines cut
*Element, type=CPS4R
  1,   1,   2,  14,  13
  2,   2,   3,  15,  14
  3,   3,   4,  16,  15
  4,   4,   5,  17,  16
  5,   5,   6,  18,  17
  6,   6,   7,  19,  18
  7,   7,   8,  20,  19
  8,   8,   9,  21,  20
  9,   9,  10,  22,  21
 10,  10,  11,  23,  22
 11,  11,  12,  24,  23
 12,  13,  14,  26,  25
 13,  14,  15,  27,  26
 14,  15,  16,  28,  27
 15,  16,  17,  29,  28
 16,  17,  18,  30,  29
 17,  18,  19,  31,  30
 18,  19,  20,  32,  31
 19,  20,  21,  33,  32
 20,  21,  22,  34,  33
** ... 101 like lines cut
*Nset, nset="Square plate", generate
   1,  144,    1
*Elset, elset="Square plate", generate
   1,  121,    1
** Section: Section-1
*Solid Section, elset="Square plate", material=Test
,
*End Part
**  
**
** ASSEMBLY
**
*Assembly, name=Assembly
**  
*Instance, name="Square plate-1", part="Square plate"
*End Instance
**  
*Nset, nset=Left, instance="Square plate-1", generate
   1,  133,   12
*Elset, elset=Left, instance="Square plate-1", generate
   1,  111,   11
*Nset, nset=Right, instance="Square plate-1", generate
  12,  144,   12
*Elset, elset=Right, instance="Square plate-1", generate
  11,  121,   11
*End Assembly
** 
** MATERIALS
** 
*Material, name=Test
*Density
1.,
*Elastic
1.,0.
** ----------------------------------------------------------------
** 
** STEP: Step-1
** 
*Step, name=Step-1, nlgeom=YES
*Dynamic, Explicit
, 10.
*Bulk Viscosity
0.06, 1.2
** 
** BOUNDARY CONDITIONS
** 
** Name: Left BC Type: Velocity/Angular velocity
*Boundary, type=VELOCITY
Left, 1, 1, -0.01
** Name: Right BC Type: Velocity/Angular velocity
*Boundary, type=VELOCITY
Right, 1, 1, 0.01
** 
** OUTPUT REQUESTS
** 
*Restart, write, number interval=1, time marks=NO
** 
** FIELD OUTPUT: F-Output-1
** 
*Output, field, variable=PRESELECT
** 
** HISTORY OUTPUT: H-Output-1
** 
*Output, history, variable=PRESELECT
*End Step
