*Heading
** Job name: Three-point-bending Model name: Model-1
** Generated by: Abaqus/CAE 6.14-1
*Preprint, echo=NO, model=NO, history=NO, contact=NO
**
** PARTS
**
*Part, name=Plate-bending
*Node
      1,           4.,           2.
      2,           4.,  0.400000006
      3,    4.0999999,           0.
      4,           8.,           0.
      5,           8.,           2.
      6,           0.,           2.
      7,           0.,           0.
      8,    3.9000001,           0.
      9,           4.,   1.89999998
     10,           4.,   1.79999995
     11,           4.,   1.70000005
     12,           4.,   1.60000002
     13,           4.,          1.5
     14,           4.,   1.39999998
     15,           4.,   1.29999995
     16,           4.,   1.20000005
     17,           4.,   1.10000002
     18,           4.,           1.
     19,           4.,  0.899999976
     20,           4.,  0.800000012
** ... 1664 like lines cut
*Element, type=CPS4R
  1,   1,   9, 222, 123
  2,   9,  10, 223, 222
  3,  10,  11, 224, 223
  4,  11,  12, 225, 224
  5,  12,  13, 226, 225
  6,  13,  14, 227, 226
  7,  14,  15, 228, 227
  8,  15,  16, 229, 228
  9,  16,  17, 230, 229
 10,  17,  18, 231, 230
 11,  18,  19, 232, 231
 12,  19,  20, 233, 232
 13,  20,  21, 234, 233
 14,  21,  22, 235, 234
 15,  22,  23, 236, 235
 16,  23,   2, 237, 236
 17,   2,  24, 238, 237
 18,  24,  25, 239, 238
 19,  25,  26, 240, 239
 20,  26,   3,  27, 240
** ... 1560 like lines cut
*Nset, nset="Plate section", generate
    1,  1684,     1
*Elset, elset="Plate section", generate
    1,  1580,     1
*Nset, nset=Left-corner-region
    7,  179,  180,  181,  182, 1684
*Nset, nset=Right-corner-region
   4,  64,  65,  66,  67, 962
*Nset, nset=Top-action-region
   1,   9, 123, 124
** Section: Section-1
*Solid Section, elset="Plate section", material=Test
,
*End Part
**  
**
** ASSEMBLY
**
*Assembly, name=Assembly
**  
*Instance, name=Plate-bending-1, part=Plate-bending
*End Instance
**  
*End Assembly
*Amplitude, name=Amp-1
             0.,              0.,              1.,              1.
** 
** MATERIALS
** 
*Material, name=Test
*Density
1.,
*Elastic
1.,0.
** ----------------------------------------------------------------
** 
** STEP: Step-1
** 
*Step, name=Step-1, nlgeom=NO
*Dynamic, Explicit
, 1.
*Bulk Viscosity
0.06, 1.2
** 
** BOUNDARY CONDITIONS
** 
** Name: Left-corner-bc Type: Displacement/Rotation
*Boundary
Plate-bending-1.Left-corner-region, 1, 1
Plate-bending-1.Left-corner-region, 2, 2
** Name: Right-corner-bc Type: Displacement/Rotation
*Boundary
Plate-bending-1.Right-corner-region, 1, 1
Plate-bending-1.Right-corner-region, 2, 2
** Name: Top-bc Type: Displacement/Rotation
*Boundary, amplitude=Amp-1
Plate-bending-1.Top-action-region, 2, 2, -0.01
** 
** OUTPUT REQUESTS
** 
*Restart, write, number interval=1, time marks=NO
** 
** FIELD OUTPUT: F-Output-1
** 
*Output, field, variable=PRESELECT
** 
** HISTORY OUTPUT: H-Output-1
** 
*Output, history, variable=PRESELECT
*End Step
