*Heading
** Job name: plate-slant-crack Model name: Model-1
** Generated by: Abaqus/CAE 6.14-1
*Preprint, echo=NO, model=NO, history=NO, contact=NO
**
** PARTS
**
*Part, name=Plate
*Node
      1,           0.,           0.
      2, 0.0250000004,           0.
      3, 0.0500000007,           0.
      4,  0.075000003,           0.
      5,  0.100000001,           0.
      6,        0.125,           0.
      7,  0.150000006,           0.
      8,  0.174999997,           0.
      9,  0.200000003,           0.
     10,  0.224999994,           0.
     11,         0.25,           0.
     12,  0.275000006,           0.
     13,  0.300000012,           0.
     14,  0.324999988,           0.
     15,  0.349999994,           0.
     16,        0.375,           0.
     17,  0.400000006,           0.
     18,  0.425000012,           0.
     19,  0.449999988,           0.
     20,  0.474999994,           0.
** ... 3342 like lines cut
*Element, type=CPS4R
   1,    1,    2,   43,   42
   2,    2,    3,   44,   43
   3,    3,    4,   45,   44
   4,    4,    5,   46,   45
   5,    5,    6,   47,   46
   6,    6,    7,   48,   47
   7,    7,    8,   49,   48
   8,    8,    9,   50,   49
   9,    9,   10,   51,   50
  10,   10,   11,   52,   51
  11,   11,   12,   53,   52
  12,   12,   13,   54,   53
  13,   13,   14,   55,   54
  14,   14,   15,   56,   55
  15,   15,   16,   57,   56
  16,   16,   17,   58,   57
  17,   17,   18,   59,   58
  18,   18,   19,   60,   59
  19,   19,   20,   61,   60
  20,   20,   21,   62,   61
** ... 3220 like lines cut
*Nset, nset=Set-1, generate
    1,  3362,     1
*Elset, elset=Set-1, generate
    1,  3240,     1
** Section: Section-1
*Solid Section, elset=Set-1, material=Test
,
*End Part
**  
**
** ASSEMBLY
**
*Assembly, name=Assembly
**  
*Instance, name=SENT-1, part=Plate
*End Instance
**  
*Nset, nset=Bottom, instance=SENT-1, generate
  1,  41,   1
*Elset, elset=Bottom, instance=SENT-1, generate
  1,  40,   1
*Nset, nset=Roller, instance=SENT-1, generate
    1,  3322,    41
*Elset, elset=Roller, instance=SENT-1, generate
    1,  3201,    40
*Nset, nset=Top, instance=SENT-1, generate
 3322,  3362,     1
*Elset, elset=Top, instance=SENT-1, generate
 3201,  3240,     1
*Nset, nset=_T-Rotated-csys, internal
Bottom, 
Roller, 
Top, 
*Transform, nset=_T-Rotated-csys
          1.,           0.,           0.,           0.,           1.,           0.
*End Assembly
** 
** MATERIALS
** 
*Material, name="SENT specimen material"
*Density
7860.,
*Elastic
 2.07e+11, 0.3
*Material, name=Test
*Density
1.,
*Elastic
1.,0.
** ----------------------------------------------------------------
** 
** STEP: Step-1
** 
*Step, name=Step-1, nlgeom=YES
*Dynamic, Explicit
, 1.
*Bulk Viscosity
0.06, 1.2
** 
** BOUNDARY CONDITIONS
** 
** Name: Bottom BC Type: Displacement/Rotation
*Boundary
Bottom, 1, 1
Bottom, 2, 2
** Name: Left BC Type: Displacement/Rotation
*Boundary
Roller, 1, 1
** Name: Top BC Type: Velocity/Angular velocity
*Boundary, type=VELOCITY
Top, 2, 2, 0.0005
** 
** OUTPUT REQUESTS
** 
*Restart, write, number interval=1, time marks=NO
** 
** FIELD OUTPUT: F-Output-1
** 
*Output, field, variable=PRESELECT
** 
** HISTORY OUTPUT: H-Output-1
** 
*Output, history, variable=PRESELECT
*End Step
