*Heading
** Job name: Asymm-bending-refined-3 Model name: Model-1
** Generated by: Abaqus/CAE 6.14-1
*Preprint, echo=NO, model=NO, history=NO, contact=NO
**
** PARTS
**
*Part, name=Assymetric-plate
*Node
      1,        6.375,        2.375
      2,   6.17677689,   2.57322335
      3,   5.82322311,   2.57322335
      4,        5.625,        2.375
      5,        6.375,           0.
      6,        5.625,           0.
      7,           3.,        2.375
      8,           0.,        2.375
      9,           0.,           0.
     10,           3.,           0.
     11,        6.375,        3.125
     12,         6.25,         2.75
     13,   6.17677689,   2.92677665
     14,          20.,        2.375
     15,          20.,           0.
     16,        5.625,        3.125
     17,   5.82322311,   2.92677665
     18,           3.,        3.125
     19,           0.,        3.125
     20,          20.,        3.125
** ... 16789 like lines cut
*Element, type=CPS4R
 1,    1,   56, 1837,   73
 2,   56,   57, 1838, 1837
 3,   57,    2,   58, 1838
 4,   73, 1837, 1839,   72
 5, 1837, 1838, 1840, 1839
 6, 1838,   58,   59, 1840
 7,   72, 1839, 1841,   71
 8, 1839, 1840, 1842, 1841
 9, 1840,   59,   60, 1842
10,   71, 1841, 1843,   70
11, 1841, 1842, 1844, 1843
12, 1842,   60,   61, 1844
13,   70, 1843, 1845,   69
14, 1843, 1844, 1846, 1845
15, 1844,   61,   62, 1846
16,   69, 1845, 1847,   68
17, 1845, 1846, 1848, 1847
18, 1846,   62,   63, 1848
19,   68, 1847, 1849,   67
20, 1847, 1848, 1850, 1849
** ... 16478 like lines cut
*Nset, nset=Plate-section, generate
     1,  16809,      1
*Elset, elset=Plate-section, generate
     1,  16498,      1
*Nset, nset=Refinement-region
    1,    2,    4,    5,    6,    7,    8,    9,   10,   11,   14,   15,   16,   17,   18,   19
   20,   21,   22,   23,   24,   25,   26,   29,   30,   31,   32,   33,   35,   36,   38,   39
   41,   42,   44,   45,   46,   47,   50,   51,   52,   54,   56,   57,   67,   68,   69,   70
   71,   72,   73,   74,   75,   76,   77,   78,   79,   80,   81,   82,   83,   84,   85,   86
   87,   88,   89,   90,   91,   92,   93,   94,   95,   96,   97,   98,   99,  100,  101,  102
  103,  104,  105,  106,  107,  108,  109,  110,  111,  112,  113,  114,  115,  116,  117,  118
  119,  120,  121,  122,  123,  124,  125,  126,  127,  128,  129,  130,  131,  132,  133,  134
  135,  136,  137,  138,  139,  140,  141,  142,  143,  144,  145,  146,  147,  148,  149,  150
  151,  152,  153,  154,  155,  156,  157,  158,  159,  160,  161,  162,  163,  164,  165,  166
  167,  168,  169,  170,  171,  172,  173,  174,  189,  190,  191,  192,  193,  194,  195,  196
  197,  198,  199,  200,  201,  202,  203,  204,  205,  206,  207,  208,  209,  210,  211,  212
  213,  214,  215,  216,  217,  218,  219,  220,  221,  222,  223,  224,  225,  226,  227,  228
  229,  230,  231,  232,  233,  234,  235,  250,  251,  252,  253,  254,  255,  256,  257,  258
  259,  260,  261,  262,  263,  264,  265,  266,  267,  268,  269,  270,  271,  272,  273,  274
  275,  276,  277,  278,  279,  280,  281,  282,  283,  284,  285,  286,  287,  288,  289,  290
  291,  292,  293,  294,  295,  296,  297,  298,  299,  300,  301,  302,  303,  446,  447,  448
  449,  450,  451,  452,  453,  454,  455,  456,  457,  458,  459,  460,  461,  462,  463,  464
  465,  466,  467,  468,  469,  470,  471,  472,  473,  474,  475,  476,  477,  478,  479,  480
  481,  482,  483,  484,  485,  486,  487,  488,  489,  490,  491,  492,  493,  494,  495,  496
  497,  498,  499,  500,  501,  523,  524,  525,  526,  527,  528,  529,  530,  531,  532,  533
** ... 43 like lines cut
*Elset, elset=Refinement-region
     1,     2,     3,     4,     7,    10,    13,    16,    19,    22,    25,    26,    27,    28,    29,    30
    31,    32,    33,    34,    35,    36,    37,    38,    39,    40,    41,    42,    43,    44,    45,    46
    47,    48,    49,    50,    51,    52,    53,    54,    55,    56,    57,    58,    59,    60,    61,    62
    63,    64,    65,    66,    67,    68,    69,    70,    71,    72,    73,   120,   121,   168,   169,   216
   217,   264,   265,   312,   313,   360,   361,   362,   363,   364,   365,   366,   367,   368,   369,   370
   371,   372,   373,   374,   375,   376,   377,   378,   379,   380,   381,   382,   383,   384,   385,   386
   387,   388,   389,   390,   391,   392,   393,   394,   395,   396,   397,   398,   399,   400,   401,   402
   403,   404,   405,   406,   407,   408,   409,   423,   424,   438,   439,   453,   454,   468,   469,   483
   484,   498,   499,   513,   514,   528,   529,   543,   544,   558,   559,   573,   574,   588,   589,   603
   604,   618,   619,   633,   634,   648,   649,   663,   664,   678,   679,   693,   694,   708,   709,   723
   724,   738,   739,   753,   754,   768,   769,   783,   784,   798,   799,   813,   814,   828,   829,   843
   844,   858,   859,   873,   874,   888,   889,   903,   904,   918,   919,   933,   934,   948,   949,   963
   964,   978,   979,   993,   994,  1008,  1009,  1023,  1024,  1038,  1039,  1053,  1054,  1068,  1069,  1083
  1084,  1098,  1099,  1113,  1114,  1128,  1129,  1130,  1131,  1134,  1137,  1140,  1143,  1146,  1149,  1152
  1153,  1220,  1221,  1288,  1289,  1356,  1357,  1424,  1425,  1492,  1493,  1560,  1561,  1628,  1629,  1696
  1697,  1764,  1765,  1832,  1833,  1900,  1901,  1968,  1969,  2036,  2037,  2104,  2105,  2172,  2173,  2240
  2241,  2308,  2309,  2376,  2377,  2444,  2445,  2512,  2513,  2580,  2581,  2648,  2649,  2716,  2717,  2784
  2785,  2852,  2853,  2920,  2921,  2988,  2989,  3056,  3057,  3124,  3125,  3192,  3193,  3260,  3261,  3328
  3329,  3396,  3397,  3464,  3465,  3532,  3533,  3600,  3601,  3668,  3669,  3736,  3737,  3804,  3805,  3872
  3873,  3940,  3941,  4008,  4009,  4076,  4077,  4144,  4145,  4212,  4213,  4280,  4281,  4348,  4349,  4416
** ... 83 like lines cut
** Section: Section-1
*Solid Section, elset=Plate-section, material=Test
,
*End Part
**  
**
** ASSEMBLY
**
*Assembly, name=Assembly
**  
*Instance, name=Assymetric-plate-1, part=Assymetric-plate
*End Instance
**  
*Nset, nset=Actuation, instance=Assymetric-plate-1
  1099, 10495, 10498, 10501
*Elset, elset="Cracked Elements", instance=Assymetric-plate-1, generate
 5474,  5493,     1
*Nset, nset=Left-pin-region, instance=Assymetric-plate-1
  239,  240,  241, 2833
*Nset, nset=Right-pin-region, instance=Assymetric-plate-1
  440,  441,  442, 5938
*End Assembly
** 
** MATERIALS
** 
*Material, name=Test
*Density
1.,
*Elastic
1.,0.
** ----------------------------------------------------------------
** 
** STEP: Step-1
** 
*Step, name=Step-1, nlgeom=NO
*Dynamic, Explicit
, 1.
*Bulk Viscosity
0.06, 1.2
** 
** BOUNDARY CONDITIONS
** 
** Name: Actuation Type: Velocity/Angular velocity
*Boundary, type=VELOCITY
Actuation, 2, 2, -0.0001
** Name: Left-pin Type: Displacement/Rotation
*Boundary
Left-pin-region, 1, 1
Left-pin-region, 2, 2
** Name: Right-pin Type: Displacement/Rotation
*Boundary
Right-pin-region, 2, 2
** 
** OUTPUT REQUESTS
** 
*Restart, write, number interval=1, time marks=NO
** 
** FIELD OUTPUT: F-Output-1
** 
*Output, field, variable=PRESELECT
** 
** HISTORY OUTPUT: H-Output-1
** 
*Output, history, variable=PRESELECT
*End Step
