*Heading
** Job name: Asymm-bending-refined-1 Model name: Model-1
** Generated by: Abaqus/CAE 6.14-1
*Preprint, echo=NO, model=NO, history=NO, contact=NO
**
** PARTS
**
*Part, name=Assymetric-plate
*Node
      1,        6.375,        2.375
      2,   6.17677689,   2.57322335
      3,   5.82322311,   2.57322335
      4,        5.625,        2.375
      5,        6.375,           0.
      6,        5.625,           0.
      7,           3.,        2.375
      8,           0.,        2.375
      9,           0.,           0.
     10,           3.,           0.
     11,        6.375,        3.125
     12,         6.25,         2.75
     13,   6.17677689,   2.92677665
     14,          20.,        2.375
     15,          20.,           0.
     16,        5.625,        3.125
     17,   5.82322311,   2.92677665
     18,           3.,        3.125
     19,           0.,        3.125
     20,          20.,        3.125
** ... 8617 like lines cut
*Element, type=CPS4R
 1,    1,   56, 1385,   73
 2,   56,   57, 1386, 1385
 3,   57,    2,   58, 1386
 4,   73, 1385, 1387,   72
 5, 1385, 1386, 1388, 1387
 6, 1386,   58,   59, 1388
 7,   72, 1387, 1389,   71
 8, 1387, 1388, 1390, 1389
 9, 1388,   59,   60, 1390
10,   71, 1389, 1391,   70
11, 1389, 1390, 1392, 1391
12, 1390,   60,   61, 1392
13,   70, 1391, 1393,   69
14, 1391, 1392, 1394, 1393
15, 1392,   61,   62, 1394
16,   69, 1393, 1395,   68
17, 1393, 1394, 1396, 1395
18, 1394,   62,   63, 1396
19,   68, 1395, 1397,   67
20, 1395, 1396, 1398, 1397
** ... 8383 like lines cut
*Nset, nset=Plate-section, generate
    1,  8637,     1
*Elset, elset=Plate-section, generate
    1,  8403,     1
*Nset, nset=Refinement-region
    1,    2,    4,    5,    6,    7,    8,    9,   10,   11,   14,   15,   16,   17,   18,   19
   20,   21,   22,   23,   24,   25,   26,   28,   29,   30,   31,   32,   33,   35,   36,   38
   39,   40,   41,   42,   44,   45,   46,   47,   50,   51,   52,   54,   56,   57,   67,   68
   69,   70,   71,   72,   73,   74,   75,   76,   77,   78,   79,   80,   81,   82,   83,   84
   85,   86,   87,   88,   89,   90,   91,   92,   93,   94,   95,   96,   97,   98,   99,  100
  101,  102,  103,  104,  105,  106,  107,  108,  109,  110,  111,  112,  113,  114,  115,  116
  117,  118,  119,  120,  121,  122,  123,  124,  125,  126,  141,  142,  143,  144,  145,  146
  147,  148,  149,  150,  151,  152,  153,  154,  155,  156,  157,  158,  159,  160,  161,  162
  163,  178,  179,  180,  181,  182,  183,  184,  185,  186,  187,  188,  189,  190,  191,  192
  193,  194,  195,  196,  197,  198,  199,  200,  201,  202,  203,  204,  205,  206,  207,  350
  351,  352,  353,  354,  355,  356,  357,  358,  359,  360,  361,  362,  363,  364,  365,  366
  367,  368,  369,  370,  371,  372,  373,  374,  375,  376,  377,  378,  379,  380,  381,  396
  397,  398,  399,  400,  401,  402,  403,  404,  405,  406,  407,  408,  409,  410,  411,  412
  413,  414,  415,  416,  417,  418,  419,  420,  421,  422,  423,  424,  425,  426,  427,  428
  429,  430,  431,  432,  433,  434,  435,  436,  437,  438,  439,  440,  441,  442,  443,  444
  445,  446,  447,  448,  449,  450,  451,  452,  453,  454,  455,  456,  457,  458,  459,  474
  475,  476,  477,  478,  479,  480,  481,  482,  483,  484,  485,  486,  487,  555,  556,  557
  558,  559,  560,  561,  562,  563,  564,  565,  566,  567,  568,  569,  570,  571,  572,  573
  574,  575,  576,  577,  578,  579,  580,  581,  582,  583,  584,  585,  586,  587,  588,  589
  590,  591,  592,  593,  594,  595,  596,  597,  598,  599,  600,  601,  602,  603,  604,  605
** ... 17 like lines cut
*Elset, elset=Refinement-region
    1,    2,    3,    4,    7,   10,   13,   16,   19,   22,   25,   26,   27,   28,   29,   30
   31,   32,   33,   34,   35,   36,   37,   38,   39,   40,   41,   42,   43,   44,   45,   46
   47,   48,   49,   72,   73,   96,   97,  120,  121,  144,  145,  168,  169,  192,  193,  194
  195,  196,  197,  198,  199,  200,  201,  202,  203,  204,  205,  206,  207,  208,  209,  210
  211,  212,  213,  214,  215,  216,  217,  231,  232,  246,  247,  261,  262,  276,  277,  291
  292,  306,  307,  321,  322,  336,  337,  351,  352,  366,  367,  381,  382,  396,  397,  411
  412,  426,  427,  441,  442,  456,  457,  471,  472,  486,  487,  501,  502,  516,  517,  531
  532,  546,  547,  561,  562,  576,  577,  578,  579,  582,  585,  588,  591,  594,  597,  600
  601,  668,  669,  736,  737,  804,  805,  872,  873,  940,  941, 1008, 1009, 1076, 1077, 1144
 1145, 1212, 1213, 1280, 1281, 1348, 1349, 1416, 1417, 1484, 1485, 1552, 1553, 1620, 1621, 1688
 1689, 1756, 1757, 1824, 1825, 1892, 1893, 1960, 1961, 2028, 2029, 2096, 2097, 2164, 2165, 2232
 2235, 2238, 2241, 2244, 2247, 2250, 2253, 2254, 2255, 2256, 2257, 2260, 2263, 2266, 2269, 2272
 2275, 2278, 2279, 2280, 2281, 2282, 2283, 2284, 2285, 2286, 2287, 2288, 2289, 2290, 2291, 2292
 2293, 2294, 2295, 2296, 2297, 2298, 2299, 2300, 2301, 2302, 2303, 2304, 2305, 2328, 2329, 2352
 2353, 2376, 2377, 2400, 2401, 2424, 2425, 2448, 2449, 2472, 2473, 2496, 2497, 2520, 2521, 2544
 2545, 2568, 2569, 2592, 2593, 2616, 2617, 2640, 2641, 2664, 2665, 2688, 2689, 2712, 2713, 2736
 2737, 2760, 2761, 2784, 2785, 2808, 2809, 2832, 2833, 2856, 2857, 2880, 2881, 2882, 2883, 2884
 2885, 2886, 2887, 2888, 2889, 2890, 2891, 2892, 2893, 2894, 2895, 2896, 2897, 2898, 2899, 2900
 2901, 2902, 2903, 2904, 2905, 2919, 2920, 2934, 2935, 2949, 2950, 2964, 2965, 2979, 2980, 2994
 2995, 3009, 3010, 3024, 3025, 3092, 3093, 3160, 3161, 3228, 3229, 3296, 3297, 3364, 3365, 3432
** ... 40 like lines cut
** Section: Section-1
*Solid Section, elset=Plate-section, material=Test
,
*End Part
**  
**
** ASSEMBLY
**
*Assembly, name=Assembly
**  
*Instance, name=Assymetric-plate-1, part=Assymetric-plate
*End Instance
**  
*Nset, nset=Actuation, instance=Assymetric-plate-1
  821,  822,  823, 5148
*Elset, elset="Cracked Elements", instance=Assymetric-plate-1, generate
 2511,  2520,     1
*Nset, nset=Left-pin-region, instance=Assymetric-plate-1
  167,  168,  169, 1877
*Nset, nset=Right-pin-region, instance=Assymetric-plate-1
  344,  345,  346, 3374
*End Assembly
** 
** MATERIALS
** 
*Material, name=Test
*Density
1.,
*Elastic
1.,0.
** ----------------------------------------------------------------
** 
** STEP: Step-1
** 
*Step, name=Step-1, nlgeom=NO
*Dynamic, Explicit
, 1.
*Bulk Viscosity
0.06, 1.2
** 
** BOUNDARY CONDITIONS
** 
** Name: Actuation Type: Velocity/Angular velocity
*Boundary, type=VELOCITY
Actuation, 2, 2, -0.0001
** Name: Left-pin Type: Displacement/Rotation
*Boundary
Left-pin-region, 1, 1
Left-pin-region, 2, 2
** Name: Right-pin Type: Displacement/Rotation
*Boundary
Right-pin-region, 2, 2
** 
** OUTPUT REQUESTS
** 
*Restart, write, number interval=1, time marks=NO
** 
** FIELD OUTPUT: F-Output-1
** 
*Output, field, variable=PRESELECT
** 
** HISTORY OUTPUT: H-Output-1
** 
*Output, history, variable=PRESELECT
*End Step
