*Heading
** Job name: Asymm-bending Model name: Model-1
** Generated by: Abaqus/CAE 6.14-1
*Preprint, echo=NO, model=NO, history=NO, contact=NO
**
** PARTS
**
*Part, name=Assymetric-plate
*Node
      1,        6.375,        2.375
      2,   6.17677689,   2.57322335
      3,   5.82322311,   2.57322335
      4,        5.625,        2.375
      5,        6.375,           0.
      6,        5.625,           0.
      7,           3.,        2.375
      8,           0.,        2.375
      9,           0.,           0.
     10,           3.,           0.
     11,        6.375,        3.125
     12,         6.25,         2.75
     13,   6.17677689,   2.92677665
     14,          20.,        2.375
     15,          20.,           0.
     16,        5.625,        3.125
     17,   5.82322311,   2.92677665
     18,           3.,        3.125
     19,           0.,        3.125
     20,          20.,        3.125
** ... 4142 like lines cut
*Element, type=CPS4R
1,  1,  2, 56, 61
2, 61, 56, 57, 60
3, 60, 57, 58, 59
4, 59, 58,  3,  4
 5,    5,   62, 1022,   86
 6,   62,   63, 1023, 1022
 7,   63,   64, 1024, 1023
 8,   64,   65, 1025, 1024
 9,   65,   66, 1026, 1025
10,   66,   67, 1027, 1026
11,   67,   68, 1028, 1027
12,   68,   69, 1029, 1028
13,   69,   70, 1030, 1029
14,   70,   71, 1031, 1030
15,   71,   72, 1032, 1031
16,   72,    1,   61, 1032
17,   86, 1022, 1033,   85
18, 1022, 1023, 1034, 1033
19, 1023, 1024, 1035, 1034
20, 1024, 1025, 1036, 1035
** ... 3980 like lines cut
*Nset, nset=Plate-section, generate
    1,  4162,     1
*Elset, elset=Plate-section, generate
    1,  4000,     1
*Nset, nset=Refinement-region
    1,    2,    4,    5,    6,    7,    8,    9,   10,   11,   14,   15,   16,   17,   18,   19
   20,   21,   22,   23,   24,   25,   26,   28,   29,   30,   31,   32,   33,   35,   36,   38
   39,   40,   41,   42,   44,   45,   46,   47,   50,   51,   52,   54,   59,   60,   61,   62
   63,   64,   65,   66,   67,   68,   69,   70,   71,   72,   73,   74,   75,   76,   77,   78
   79,   80,   81,   82,   83,   84,   85,   86,  101,  102,  103,  104,  105,  106,  107,  108
  109,  110,  111,  126,  127,  128,  129,  130,  131,  132,  133,  134,  135,  136,  137,  138
  139,  276,  277,  278,  279,  280,  281,  282,  283,  284,  285,  286,  287,  288,  289,  296
  297,  298,  299,  300,  301,  302,  303,  304,  305,  306,  307,  308,  309,  310,  311,  312
  313,  314,  315,  316,  317,  318,  319,  320,  321,  322,  323,  324,  325,  340,  341,  342
  343,  344,  345,  413,  414,  415,  416,  417,  418,  419,  420,  421,  422,  423,  424,  425
  426,  427,  428,  429,  430,  431,  432,  433,  434,  435,  436,  437,  438,  439,  440,  441
  442,  457,  458,  459,  460,  461,  499,  500,  501,  505,  506,  507,  645,  646,  647,  648
  649,  720,  721,  722,  723,  724,  725,  726,  727,  728,  729,  730,  731,  732,  733,  734
  749,  750,  751,  766,  767,  768,  769,  770,  771,  772,  773,  774,  775,  776,  777,  778
  779,  780,  781,  782,  783,  784,  785,  786,  787,  788,  789,  790,  791,  792,  793,  794
  795,  799,  800,  801,  869,  870,  871,  872,  873,  874,  942,  943,  944,  950,  951,  952
  953,  954,  955,  956,  957,  958,  959,  960,  961,  962,  963,  964,  975,  976,  977,  978
  979,  980,  981,  982,  983,  984,  985,  986,  987,  988,  989, 1008, 1009, 1010, 1016, 1017
 1018,
*Elset, elset=Refinement-region
    1,    2,    3,    4,    5,    6,    7,    8,    9,   10,   11,   12,   13,   14,   15,   16
   17,   28,   29,   40,   41,   42,   43,   44,   45,   46,   47,   48,   49,   50,   51,   52
   53,   67,   68,   82,   83,   97,   98,  112,  113,  127,  128,  142,  143,  157,  158,  172
  173,  187,  188,  202,  203,  217,  218,  232,  233,  234,  235,  236,  237,  304,  305,  372
  373,  440,  441,  508,  509,  576,  577,  644,  645,  712,  713,  780,  781,  848,  849,  916
  917,  984,  985, 1052, 1053, 1054, 1055, 1056, 1057, 1058, 1059, 1060, 1061, 1062, 1063, 1064
 1065, 1066, 1067, 1068, 1069, 1070, 1071, 1072, 1073, 1084, 1085, 1096, 1097, 1108, 1109, 1120
 1121, 1132, 1133, 1144, 1145, 1156, 1157, 1168, 1169, 1180, 1181, 1192, 1193, 1204, 1205, 1206
 1207, 1208, 1209, 1210, 1211, 1212, 1213, 1214, 1215, 1216, 1217, 1231, 1232, 1246, 1247, 1261
 1262, 1276, 1277, 1344, 1345, 1412, 1413, 1480, 1481, 1548, 1549, 1550, 1551, 1552, 1553, 1554
 1555, 1560, 1561, 1566, 1567, 1568, 1569, 1570, 1571, 1572, 1573, 1574, 1575, 1576, 1577, 1580
 1581, 1584, 1585, 1588, 1589, 1592, 1593, 1596, 1597, 1600, 1601, 1604, 1605, 1608, 1609, 1612
 1613, 1616, 1617, 1620, 1621, 1622, 1623, 1624, 1625, 1639, 1640, 1654, 1655, 1669, 1670, 1684
 1685, 1699, 1700, 1714, 1775, 1778, 1779, 1782, 1783, 1786, 1787, 1790, 2063, 2130, 2131, 2198
 2199, 2266, 2267, 2334, 2335, 2402, 2403, 2470, 2471, 2472, 2473, 2474, 2475, 2476, 2477, 2478
 2479, 2480, 2481, 2486, 2487, 2492, 2493, 2498, 2499, 2504, 2505, 2510, 2511, 2516, 2517, 2522
 2523, 2528, 2529, 2534, 2535, 2540, 2541, 2546, 2547, 2548, 2549, 2550, 2551, 2552, 2553, 2567
 2568, 2582, 2583, 2597, 2598, 2612, 2613, 2627, 2628, 2642, 2643, 2657, 2658, 2672, 2673, 2676
 2677, 2680, 2681, 2684, 2685, 2688, 2689, 2692, 2693, 2696, 2697, 2700, 2701, 2704, 2705, 2708
 2709, 2712, 2713, 2716, 2717, 2720, 2721, 2724, 2725, 2726, 2727, 2728, 2729, 2796, 2797, 2864
** ... 9 like lines cut
** Section: Section-1
*Solid Section, elset=Plate-section, material=Test
,
*End Part
**  
**
** ASSEMBLY
**
*Assembly, name=Assembly
**  
*Instance, name=Assymetric-plate-1, part=Assymetric-plate
*End Instance
**  
*Nset, nset=Actuation, instance=Assymetric-plate-1
  626,  627,  628, 2544
*Elset, elset="Cracked Elements", instance=Assymetric-plate-1, generate
 1116,  1120,     1
*Nset, nset=Left-pin-region, instance=Assymetric-plate-1
  115,  116,  117, 1204
*Nset, nset=Right-pin-region, instance=Assymetric-plate-1
  270,  271,  272, 1883
*End Assembly
** 
** MATERIALS
** 
*Material, name=Test
*Density
1.,
*Elastic
1.,0.
** ----------------------------------------------------------------
** 
** STEP: Step-1
** 
*Step, name=Step-1, nlgeom=NO
*Dynamic, Explicit
, 1.
*Bulk Viscosity
0.06, 1.2
** 
** BOUNDARY CONDITIONS
** 
** Name: Actuation Type: Velocity/Angular velocity
*Boundary, type=VELOCITY
Actuation, 2, 2, -0.0001
** Name: Left-pin Type: Displacement/Rotation
*Boundary
Left-pin-region, 1, 1
Left-pin-region, 2, 2
** Name: Right-pin Type: Displacement/Rotation
*Boundary
Right-pin-region, 2, 2
** 
** OUTPUT REQUESTS
** 
*Restart, write, number interval=1, time marks=NO
** 
** FIELD OUTPUT: F-Output-1
** 
*Output, field, variable=PRESELECT
** 
** HISTORY OUTPUT: H-Output-1
** 
*Output, history, variable=PRESELECT
*End Step
