*Heading
** Job name: j-benchmark-crack-model Model name: Model-1
** Generated by: Abaqus/CAE 6.14-1
*Preprint, echo=NO, model=NO, history=NO, contact=NO
**
** PARTS
**
*Part, name=Plate
*End Part
**  
**
** ASSEMBLY
**
*Assembly, name=Assembly
**  
*Instance, name=SENT-1, part=Plate
*Node
      1,  0.400000006,           0.
      2,  0.400000006,  0.975610018
      3,           0.,  0.975610018
      4,           0.,           0.
      5,  0.400000006,           1.
      6,           0.,           1.
      7,  0.400000006,   1.02438998
      8,           0.,   1.02438998
      9,  0.400000006,           2.
     10,           1.,           0.
     11,           1.,           2.
     12,           0.,           2.
     13,  0.400000006, 0.0487805009
     14,  0.400000006, 0.0975610018
     15,  0.400000006,  0.146341503
     16,  0.400000006,  0.195122004
     17,  0.400000006,  0.243902504
     18,  0.400000006,  0.292683005
     19,  0.400000006,  0.341463506
     20,  0.400000006,  0.390244007
** ... 891 like lines cut
*Element, type=CPS4R
  1,   1,  13, 187,  64
  2,  13,  14, 188, 187
  3,  14,  15, 189, 188
  4,  15,  16, 190, 189
  5,  16,  17, 191, 190
  6,  17,  18, 192, 191
  7,  18,  19, 193, 192
  8,  19,  20, 194, 193
  9,  20,  21, 195, 194
 10,  21,  22, 196, 195
 11,  22,  23, 197, 196
 12,  23,  24, 198, 197
 13,  24,  25, 199, 198
 14,  25,  26, 200, 199
 15,  26,  27, 201, 200
 16,  27,  28, 202, 201
 17,  28,  29, 203, 202
 18,  29,  30, 204, 203
 19,  30,  31, 205, 204
 20,  31,   2,  32, 205
** ... 804 like lines cut
*Element, type=CPS3
161,   5, 904,  32
162,  32,   2,   5
163, 904, 905,  33
164,  33,  32, 904
165, 905, 906,  34
166,  34,  33, 905
167, 906, 907,  35
168,  35,  34, 906
169, 907, 908,  36
170,  36,  35, 907
171, 908, 909,  37
172,  37,  36, 908
173, 909, 910,  38
174,  38,  37, 909
175, 910, 911,   3
176,   3,  38, 910
177,  7, 72, 65
178, 65,  5,  7
179, 72, 73, 66
180, 66, 65, 72
** ... 12 like lines cut
*Nset, nset=Set-1, generate
   1,  911,    1
*Elset, elset=Set-1, generate
   1,  856,    1
** Section: Section-1
*Solid Section, elset=Set-1, material=Test
,
*End Instance
**  
*Nset, nset=Bottom, instance=SENT-1
   1,   4,  10,  58,  59,  60,  61,  62,  63,  64,  98,  99, 100, 101, 102, 103
 104, 105, 106, 107, 108
*Elset, elset=Bottom, instance=SENT-1
   1,  21,  41,  61,  81, 101, 121, 141, 234, 276, 318, 360, 402, 444, 486, 528
 570, 612, 654, 696
*Nset, nset=Roller, instance=SENT-1
   3,   4,   6,   8,  12,  39,  40,  41,  42,  43,  44,  45,  46,  47,  48,  49
  50,  51,  52,  53,  54,  55,  56,  57, 168, 169, 170, 171, 172, 173, 174, 175
 176, 177, 178, 179, 180, 181, 182, 183, 184, 185, 186, 911
*Elset, elset=Roller, instance=SENT-1
 141, 142, 143, 144, 145, 146, 147, 148, 149, 150, 151, 152, 153, 154, 155, 156
 157, 158, 159, 160, 175, 191, 837, 838, 839, 840, 841, 842, 843, 844, 845, 846
 847, 848, 849, 850, 851, 852, 853, 854, 855, 856
*Nset, nset=Set-4, instance=SENT-1
   5,   6,  65,  66,  67,  68,  69,  70,  71, 904, 905, 906, 907, 908, 909, 910
 911,
*Elset, elset=Set-4, instance=SENT-1
 161, 163, 165, 167, 169, 171, 173, 175, 178, 180, 182, 184, 186, 188, 190, 192
*Nset, nset=Top, instance=SENT-1
   9,  11,  12, 150, 151, 152, 153, 154, 155, 156, 157, 158, 159, 160, 161, 162
 163, 164, 165, 166, 167
*Elset, elset=Top, instance=SENT-1
 193, 235, 277, 319, 361, 403, 445, 487, 529, 571, 613, 655, 716, 736, 756, 776
 796, 816, 836, 856
*Nset, nset=_PickedSet14, internal, instance=SENT-1
   5,   6,  65,  66,  67,  68,  69,  70,  71, 904, 905, 906, 907, 908, 909, 910
 911,
*Elset, elset=_PickedSet14, internal, instance=SENT-1
 161, 163, 165, 167, 169, 171, 173, 175, 178, 180, 182, 184, 186, 188, 190, 192
*Nset, nset=_PickedSet15, internal, instance=SENT-1
 5,
*End Assembly
** 
** MATERIALS
** 
*Material, name="SENT specimen material"
*Density
7860.,
*Elastic
 2.07e+11, 0.3
*Material, name=Test
*Density
1.,
*Elastic
1.,0.
** ----------------------------------------------------------------
** 
** STEP: Step-1
** 
*Step, name=Step-1, nlgeom=YES
*Dynamic, Explicit
, 10.
*Bulk Viscosity
0.06, 1.2
** 
** BOUNDARY CONDITIONS
** 
** Name: Bottom BC Type: Displacement/Rotation
*Boundary
Bottom, 1, 1
Bottom, 2, 2
** Name: Left BC Type: Displacement/Rotation
*Boundary
Roller, 1, 1
** Name: Top BC Type: Velocity/Angular velocity
*Boundary, type=VELOCITY
Top, 2, 2, 0.0001
** 
** OUTPUT REQUESTS
** 
*Restart, write, number interval=1, time marks=NO
** 
** FIELD OUTPUT: F-Output-1
** 
*Output, field, variable=PRESELECT
** 
** HISTORY OUTPUT: H-Output-1
** 
*Output, history, variable=PRESELECT
*End Step
