*Heading
** Job name: j_int_patch_refined Model name: Model-1
** Generated by: Abaqus/CAE 6.14-1
*Preprint, echo=NO, model=NO, history=NO, contact=NO
**
** PARTS
**
*Part, name="Square plate"
*End Part
**  
**
** ASSEMBLY
**
*Assembly, name=Assembly
**  
*Instance, name="Square plate-1", part="Square plate"
*Node
      1,          0.5,           0.
      2,          0.5,          0.5
      3,           0.,          0.5
      4,           0.,           0.
      5,          0.5,           1.
      6,           0.,           1.
      7,           1.,          0.5
      8,           1.,           1.
      9,           1.,           0.
     10,          0.5,        0.125
     11,          0.5,         0.25
     12,          0.5,        0.375
     13,        0.375,          0.5
     14,         0.25,          0.5
     15,        0.125,          0.5
     16,           0.,        0.375
     17,           0.,         0.25
     18,           0.,        0.125
     19,        0.125,           0.
     20,         0.25,           0.
** ... 65 like lines cut
*Element, type=CPS4R
 1,  1, 10, 46, 21
 2, 10, 11, 47, 46
 3, 11, 12, 48, 47
 4, 12,  2, 82, 48
 5, 21, 46, 49, 20
 6, 46, 47, 50, 49
 7, 47, 48, 51, 50
 8, 48, 82, 83, 51
 9, 20, 49, 52, 19
10, 49, 50, 53, 52
11, 50, 51, 54, 53
12, 51, 83, 84, 54
13, 19, 52, 18,  4
14, 52, 53, 17, 18
15, 53, 54, 16, 17
16, 54, 84, 85, 16
17,  2, 22, 55, 13
18, 22, 23, 56, 55
19, 23, 24, 57, 56
20, 24,  5, 25, 57
** ... 44 like lines cut
*Nset, nset="Square plate", generate
  1,  85,   1
*Elset, elset="Square plate", generate
  1,  64,   1
** Section: Section-1
*Solid Section, elset="Square plate", material=Test
,
*End Instance
**  
*Nset, nset=Right, instance="Square plate-1"
  7,  8,  9, 34, 35, 36, 43, 44, 45
*Elset, elset=Right, instance="Square plate-1"
 45, 46, 47, 48, 61, 62, 63, 64
*Nset, nset=Set-29, instance="Square plate-1"
  2,  3, 13, 14, 15, 82, 83, 84, 85
*Elset, elset=Set-29, instance="Square plate-1"
  4,  8, 12, 16, 17, 21, 25, 29
*Nset, nset=Set-37, instance="Square plate-1", generate
  1,  85,   1
*Elset, elset=Set-37, instance="Square plate-1", generate
  1,  64,   1
*Nset, nset=Set-41, instance="Square plate-1"
  2,  3, 13, 14, 15, 82, 83, 84, 85
*Elset, elset=Set-41, instance="Square plate-1"
  4,  8, 12, 16, 17, 21, 25, 29
*Nset, nset=_PickedSet56, internal, instance="Square plate-1"
  2,  3, 13, 14, 15, 82, 83, 84, 85
*Elset, elset=_PickedSet56, internal, instance="Square plate-1"
  4,  8, 12, 16, 17, 21, 25, 29
*Nset, nset=_PickedSet57, internal, instance="Square plate-1"
 2,
*End Assembly
** 
** MATERIALS
** 
*Material, name=Test
*Density
1.,
*Elastic
1.,0.
** ----------------------------------------------------------------
** 
** STEP: Step-1
** 
*Step, name=Step-1, nlgeom=NO
*Static
0.1, 10., 0.1, 0.1
** 
** BOUNDARY CONDITIONS
** 
** Name: BC-1 Type: Displacement/Rotation
*Boundary, user
Set-37, 1, 1, 1.
Set-37, 2, 2, 1.
Set-37, 6, 6, 1.
** 
** OUTPUT REQUESTS
** 
*Restart, write, number interval=1, time marks=NO
** 
** FIELD OUTPUT: F-Output-1
** 
*Output, field, variable=PRESELECT, number interval=20, time marks=NO
** 
** HISTORY OUTPUT: H-Output-1
** 
*Output, history, variable=PRESELECT, number interval=200, time marks=NO
** 
** HISTORY OUTPUT: H-Output-2
** 
*Contour Integral, crack name=H-Output-2_Crack-1, contours=4, crack tip nodes
_PickedSet56, _PickedSet57, 1., 0., 0.
*End Step
