*Heading
** Job name: plate_with_a_hole_shear Model name: Model-1
** Generated by: Abaqus/CAE 6.14-1
*Preprint, echo=NO, model=NO, history=NO, contact=NO
**
** PARTS
**
*Part, name="Plate with a hole"
*Node
      1,  0.150000006,  0.400000006
      2,           0.,  0.400000006
      3,           0.,           0.
      4,  0.150000006,           0.
      5,  0.214644656,   0.53535533
      6,  0.150000006,  0.600000024
      7,  0.214644656,   0.46464467
      8,           0.,  0.600000024
      9,  0.349999994,           0.
     10,  0.349999994,  0.400000006
     11,   0.28535533,   0.46464467
     12,   0.28535533,   0.53535533
     13,  0.349999994,  0.600000024
     14,  0.150000006,           1.
     15,           0.,           1.
     16,          0.5,           0.
     17,          0.5,  0.400000006
     18,  0.300000012,          0.5
     19,  0.349999994,           1.
     20,          0.5,  0.600000024
** ... 2562 like lines cut
*Element, type=CPE4R
  1,   1,  22, 493, 103
  2,  22,  23, 494, 493
  3,  23,  24, 495, 494
  4,  24,  25, 496, 495
  5,  25,  26, 497, 496
  6,  26,  27, 498, 497
  7,  27,  28, 499, 498
  8,  28,  29, 500, 499
  9,  29,   2,  30, 500
 10, 103, 493, 501, 102
 11, 493, 494, 502, 501
 12, 494, 495, 503, 502
 13, 495, 496, 504, 503
 14, 496, 497, 505, 504
 15, 497, 498, 506, 505
 16, 498, 499, 507, 506
 17, 499, 500, 508, 507
 18, 500,  30,  31, 508
 19, 102, 501, 509, 101
 20, 501, 502, 510, 509
** ... 2428 like lines cut
*Nset, nset=Plate-hole, generate
    1,  2582,     1
*Elset, elset=Plate-hole, generate
    1,  2448,     1
** Section: Section-1
*Solid Section, elset=Plate-hole, controls=EC-1, material=Test
,
*End Part
**  
**
** ASSEMBLY
**
*Assembly, name=Assembly
**  
*Instance, name="Plate with a hole-1", part="Plate with a hole"
*End Instance
**  
*Nset, nset=Bottom, instance="Plate with a hole-1"
   3,   4,   9,  16,  63,  64,  65,  66,  67,  68,  69,  70, 195, 196, 197, 198
 199, 200, 201, 202, 203, 204, 205, 319, 320, 321, 322, 323, 324, 325, 326
*Elset, elset=Bottom, instance="Plate with a hole-1"
  298,  299,  300,  301,  302,  303,  304,  305,  306,  463,  497,  531,  565,  599,  633,  667
  701,  735,  769,  803,  837, 1306, 1340, 1374, 1408, 1442, 1476, 1510, 1544, 1578
*Nset, nset=Top, instance="Plate with a hole-1"
  14,  15,  19,  21, 278, 279, 280, 281, 282, 283, 284, 285, 422, 423, 424, 425
 426, 427, 428, 429, 430, 431, 432, 485, 486, 487, 488, 489, 490, 491, 492
*Elset, elset=Top, instance="Plate with a hole-1"
 1000, 1034, 1068, 1102, 1136, 1170, 1204, 1238, 1272, 1660, 1694, 1728, 1762, 1796, 1830, 1864
 1898, 1932, 1966, 2000, 2034, 2440, 2441, 2442, 2443, 2444, 2445, 2446, 2447, 2448
*End Assembly
** 
** ELEMENT CONTROLS
** 
*Section Controls, name=EC-1
1., 1., 1., 0., 0.
** 
** MATERIALS
** 
*Material, name=Test
*Density
1.,
*Elastic
1., 0.3
** ----------------------------------------------------------------
** 
** STEP: Step-1
** 
*Step, name=Step-1, nlgeom=NO
*Dynamic, Explicit
, 10.
*Bulk Viscosity
0., 0.
** 
** BOUNDARY CONDITIONS
** 
** Name: Velocity Top Type: Velocity/Angular velocity
*Boundary, type=VELOCITY
Top, 1, 1, 0.01
Top, 2, 2, 0.01
** Name: Velocity bottom Type: Velocity/Angular velocity
*Boundary, type=VELOCITY
Bottom, 1, 1, -0.01
Bottom, 2, 2, -0.01
** 
** OUTPUT REQUESTS
** 
*Restart, write, number interval=1, time marks=NO
** 
** FIELD OUTPUT: F-Output-1
** 
*Output, field, variable=PRESELECT
** 
** HISTORY OUTPUT: H-Output-1
** 
*Output, history, variable=PRESELECT
*End Step
