*Heading
** Job name: doublecant-single-node Model name: Model-1
** Generated by: Abaqus/CAE 6.14-1
*Preprint, echo=NO, model=NO, history=NO, contact=NO
**
** PARTS
**
*Part, name=Part-1
*Node
      1,           1., 0.0489999987
      2,  0.300000012, 0.0489999987
      3,  0.300000012,           0.
      4,           1.,           0.
      5,  0.300000012,  0.050999999
      6,           1.,  0.050999999
      7,           1.,  0.100000001
      8,  0.300000012,  0.100000001
      9,           0., 0.0489999987
     10,           0.,           0.
     11,           0.,  0.050999999
     12,           0.,  0.100000001
     13,  0.980000019, 0.0489999987
     14,  0.959999979, 0.0489999987
     15,  0.939999998, 0.0489999987
     16,  0.920000017, 0.0489999987
     17,  0.899999976, 0.0489999987
     18,  0.879999995, 0.0489999987
     19,  0.860000014, 0.0489999987
     20,  0.839999974, 0.0489999987
** ... 388 like lines cut
*Element, type=CPS4R
  1,   1,  13, 217,  84
  2,  13,  14, 218, 217
  3,  14,  15, 219, 218
  4,  15,  16, 220, 219
  5,  16,  17, 221, 220
  6,  17,  18, 222, 221
  7,  18,  19, 223, 222
  8,  19,  20, 224, 223
  9,  20,  21, 225, 224
 10,  21,  22, 226, 225
 11,  22,  23, 227, 226
 12,  23,  24, 228, 227
 13,  24,  25, 229, 228
 14,  25,  26, 230, 229
 15,  26,  27, 231, 230
 16,  27,  28, 232, 231
 17,  28,  29, 233, 232
 18,  29,  30, 234, 233
 19,  30,  31, 235, 234
 20,  31,  32, 236, 235
** ... 330 like lines cut
*Nset, nset=Set-1, generate
   1,  408,    1
*Elset, elset=Set-1, generate
   1,  350,    1
*Nset, nset=Remove
   2,   5,   9,  11, 157, 158, 159, 160, 161, 162, 163, 164, 165, 166, 167, 168
 169, 170, 187, 188, 189, 190, 191, 192, 193, 194, 195, 196, 197, 198, 199, 200
*Elset, elset=Remove, generate
 336,  350,    1
** Section: Section-1
*Solid Section, elset=Set-1, material=Material-1
,
*End Part
**  
**
** ASSEMBLY
**
*Assembly, name=Assembly
**  
*Instance, name=Part-1-1, part=Part-1
*End Instance
**  
*Nset, nset=Cohesive, instance=Part-1-1
   1,   2,   5,   6,  13,  14,  15,  16,  17,  18,  19,  20,  21,  22,  23,  24
  25,  26,  27,  28,  29,  30,  31,  32,  33,  34,  35,  36,  37,  38,  39,  40
  41,  42,  43,  44,  45,  46,  85,  86,  87,  88,  89,  90,  91,  92,  93,  94
  95,  96,  97,  98,  99, 100, 101, 102, 103, 104, 105, 106, 107, 108, 109, 110
 111, 112, 113, 114, 115, 116, 117, 118
*Elset, elset=Cohesive, instance=Part-1-1, generate
 211,  245,    1
*Nset, nset=Left-bottom, instance=Part-1-1
 10,
*Nset, nset=Left-top, instance=Part-1-1
 12,
*Nset, nset=Remove, instance=Part-1-1
   2,   5,   9,  11, 157, 158, 159, 160, 161, 162, 163, 164, 165, 166, 167, 168
 169, 170, 187, 188, 189, 190, 191, 192, 193, 194, 195, 196, 197, 198, 199, 200
*Elset, elset=Remove, instance=Part-1-1, generate
 336,  350,    1
*Nset, nset=Right-fixed, instance=Part-1-1
   1,   4,   6,   7,  83,  84, 119, 120
*Elset, elset=Right-fixed, instance=Part-1-1
   1,  36,  71, 140, 175, 210
*End Assembly
** 
** MATERIALS
** 
*Material, name=Material-1
*Density
1.,
*Elastic
1.,0.
** ----------------------------------------------------------------
** 
** STEP: Step-1
** 
*Step, name=Step-1, nlgeom=YES
*Dynamic, Explicit
, 1.
*Bulk Viscosity
0.06, 1.2
** 
** BOUNDARY CONDITIONS
** 
** Name: BC-1 Type: Displacement/Rotation
*Boundary
Right-fixed, 1, 1
Right-fixed, 2, 2
** Name: BC-2 Type: Velocity/Angular velocity
*Boundary, type=VELOCITY
Left-top, 2, 2, 0.001
** Name: BC-3 Type: Velocity/Angular velocity
*Boundary, type=VELOCITY
Left-bottom, 2, 2, -0.001
** 
** OUTPUT REQUESTS
** 
*Restart, write, number interval=1, time marks=NO
** 
** FIELD OUTPUT: F-Output-1
** 
*Output, field, variable=PRESELECT
** 
** HISTORY OUTPUT: H-Output-1
** 
*Output, history, variable=PRESELECT
*End Step
