*Heading
** Job name: doublecant Model name: Model-1
** Generated by: Abaqus/CAE 6.14-1
*Preprint, echo=NO, model=NO, history=NO, contact=NO
**
** PARTS
**
*Part, name=Part-1
*Node
      1,           0.,  0.050999999
      2,          0.5,  0.050999999
      3,          0.5,  0.100000001
      4,           0.,  0.100000001
      5,          0.5, 0.0489999987
      6,           0., 0.0489999987
      7,           0.,           0.
      8,          0.5,           0.
      9,           1.,  0.050999999
     10,           1.,  0.100000001
     11,           1., 0.0489999987
     12,           1.,           0.
     13, 0.0250000004,  0.050999999
     14, 0.0500000007,  0.050999999
     15,  0.075000003,  0.050999999
     16,  0.100000001,  0.050999999
     17,        0.125,  0.050999999
     18,  0.150000006,  0.050999999
     19,  0.174999997,  0.050999999
     20,  0.200000003,  0.050999999
** ... 226 like lines cut
*Element, type=CPS4R
 1,   1,  13, 171,  52
 2,  13,  14, 172, 171
 3,  14,  15, 173, 172
 4,  15,  16, 174, 173
 5,  16,  17, 175, 174
 6,  17,  18, 176, 175
 7,  18,  19, 177, 176
 8,  19,  20, 178, 177
 9,  20,  21, 179, 178
10,  21,  22, 180, 179
11,  22,  23, 181, 180
12,  23,  24, 182, 181
13,  24,  25, 183, 182
14,  25,  26, 184, 183
15,  26,  27, 185, 184
16,  27,  28, 186, 185
17,  28,  29, 187, 186
18,  29,  30, 188, 187
19,  30,  31, 189, 188
20,  31,   2,  32, 189
** ... 180 like lines cut
*Nset, nset=Set-1, generate
   1,  246,    1
*Elset, elset=Set-1, generate
   1,  200,    1
*Elset, elset=Remove, generate
  81,  100,    1
*Elset, elset=Cohesive, generate
 181,  200,    1
** Section: Section-1
*Solid Section, elset=Set-1, material=Material-1
,
*End Part
**  
**
** ASSEMBLY
**
*Assembly, name=Assembly
**  
*Instance, name=Part-1-1, part=Part-1
*End Instance
**  
*Nset, nset=Left-bottom, instance=Part-1-1
  6,  7, 72
*Elset, elset=Left-bottom, instance=Part-1-1
 60, 80
*Nset, nset=Left-top, instance=Part-1-1
  1,  4, 52
*Elset, elset=Left-top, instance=Part-1-1
  1, 21
*Nset, nset=Right-fixed, instance=Part-1-1
   9,  10,  11,  12, 112, 170
*Elset, elset=Right-fixed, instance=Part-1-1
 120, 140, 141, 161
*End Assembly
** 
** MATERIALS
** 
*Material, name=Material-1
*Density
1.,
*Elastic
1.,0.
** ----------------------------------------------------------------
** 
** STEP: Step-1
** 
*Step, name=Step-1, nlgeom=YES
*Dynamic, Explicit
, 1.
*Bulk Viscosity
0.06, 1.2
** 
** BOUNDARY CONDITIONS
** 
** Name: BC-1 Type: Displacement/Rotation
*Boundary
Right-fixed, 1, 1
Right-fixed, 2, 2
** Name: BC-2 Type: Velocity/Angular velocity
*Boundary, type=VELOCITY
Left-top, 2, 2, 0.001
** Name: BC-3 Type: Velocity/Angular velocity
*Boundary, type=VELOCITY
Left-bottom, 2, 2, -0.001
** 
** OUTPUT REQUESTS
** 
*Restart, write, number interval=1, time marks=NO
** 
** FIELD OUTPUT: F-Output-1
** 
*Output, field, variable=PRESELECT
** 
** HISTORY OUTPUT: H-Output-1
** 
*Output, history, variable=PRESELECT
*End Step
