*Heading
** Job name: XFEM-miehe-pure-shear Model name: Model-1
** Generated by: Abaqus/CAE 6.14-1
*Preprint, echo=NO, model=NO, history=NO, contact=NO
**
** PARTS
**
*Part, name=Part-1
*End Part
**  
**
** ASSEMBLY
**
*Assembly, name=Assembly
**  
*Instance, name=Part-1-1, part=Part-1
*Node
      1,           1.,           0.
      2,           1.,          0.5
      3,           0.,          0.5
      4,           0.,           0.
      5,           1.,           1.
      6,           0.,           1.
      7,           2.,          0.5
      8,           2.,           1.
      9,           2.,           0.
     10,           1., 0.0384615399
     11,           1., 0.0769230798
     12,           1.,  0.115384616
     13,           1.,   0.15384616
     14,           1.,  0.192307696
     15,           1.,  0.230769232
     16,           1.,  0.269230783
     17,           1.,  0.307692319
     18,           1.,  0.346153855
     19,           1.,  0.384615391
     20,           1.,  0.423076928
** ... 1357 like lines cut
*Element, type=CPS4R
  1,   1,  10, 226,  81
  2,  10,  11, 227, 226
  3,  11,  12, 228, 227
  4,  12,  13, 229, 228
  5,  13,  14, 230, 229
  6,  14,  15, 231, 230
  7,  15,  16, 232, 231
  8,  16,  17, 233, 232
  9,  17,  18, 234, 233
 10,  18,  19, 235, 234
 11,  19,  20, 236, 235
 12,  20,  21, 237, 236
 13,  21,   2,  22, 237
 14,  81, 226, 238,  80
 15, 226, 227, 239, 238
 16, 227, 228, 240, 239
 17, 228, 229, 241, 240
 18, 229, 230, 242, 241
 19, 230, 231, 243, 242
 20, 231, 232, 244, 243
** ... 1280 like lines cut
*Nset, nset=Set-1, generate
    1,  1377,     1
*Elset, elset=Set-1, generate
    1,  1300,     1
** Section: Section-1
*Solid Section, elset=Set-1, material=Material-1
,
*End Instance
**  
*Nset, nset=Set-3, instance=Part-1-1
   1,   4,   9,  58,  59,  60,  61,  62,  63,  64,  65,  66,  67,  68,  69,  70
  71,  72,  73,  74,  75,  76,  77,  78,  79,  80,  81, 190, 191, 192, 193, 194
 195, 196, 197, 198, 199, 200, 201, 202, 203, 204, 205, 206, 207, 208, 209, 210
 211, 212, 213
*Elset, elset=Set-3, instance=Part-1-1
    1,   14,   27,   40,   53,   66,   79,   92,  105,  118,  131,  144,  157,  170,  183,  196
  209,  222,  235,  248,  261,  274,  287,  300,  313,  988, 1001, 1014, 1027, 1040, 1053, 1066
 1079, 1092, 1105, 1118, 1131, 1144, 1157, 1170, 1183, 1196, 1209, 1222, 1235, 1248, 1261, 1274
 1287, 1300
*Nset, nset=Set-4, instance=Part-1-1
   5,   6,   8,  94,  95,  96,  97,  98,  99, 100, 101, 102, 103, 104, 105, 106
 107, 108, 109, 110, 111, 112, 113, 114, 115, 116, 117, 166, 167, 168, 169, 170
 171, 172, 173, 174, 175, 176, 177, 178, 179, 180, 181, 182, 183, 184, 185, 186
 187, 188, 189
*Elset, elset=Set-4, instance=Part-1-1
 338, 351, 364, 377, 390, 403, 416, 429, 442, 455, 468, 481, 494, 507, 520, 533
 546, 559, 572, 585, 598, 611, 624, 637, 650, 651, 664, 677, 690, 703, 716, 729
 742, 755, 768, 781, 794, 807, 820, 833, 846, 859, 872, 885, 898, 911, 924, 937
 950, 963
*Nset, nset=Set-5, instance=Part-1-1
   1,   4,   5,   6,   8,   9,  58,  59,  60,  61,  62,  63,  64,  65,  66,  67
  68,  69,  70,  71,  72,  73,  74,  75,  76,  77,  78,  79,  80,  81,  94,  95
  96,  97,  98,  99, 100, 101, 102, 103, 104, 105, 106, 107, 108, 109, 110, 111
 112, 113, 114, 115, 116, 117, 166, 167, 168, 169, 170, 171, 172, 173, 174, 175
 176, 177, 178, 179, 180, 181, 182, 183, 184, 185, 186, 187, 188, 189, 190, 191
 192, 193, 194, 195, 196, 197, 198, 199, 200, 201, 202, 203, 204, 205, 206, 207
 208, 209, 210, 211, 212, 213
*Elset, elset=Set-5, instance=Part-1-1
    1,   14,   27,   40,   53,   66,   79,   92,  105,  118,  131,  144,  157,  170,  183,  196
  209,  222,  235,  248,  261,  274,  287,  300,  313,  338,  351,  364,  377,  390,  403,  416
  429,  442,  455,  468,  481,  494,  507,  520,  533,  546,  559,  572,  585,  598,  611,  624
  637,  650,  651,  664,  677,  690,  703,  716,  729,  742,  755,  768,  781,  794,  807,  820
  833,  846,  859,  872,  885,  898,  911,  924,  937,  950,  963,  988, 1001, 1014, 1027, 1040
 1053, 1066, 1079, 1092, 1105, 1118, 1131, 1144, 1157, 1170, 1183, 1196, 1209, 1222, 1235, 1248
 1261, 1274, 1287, 1300
*Nset, nset=Set-6, instance=Part-1-1
   1,   4,   9,  58,  59,  60,  61,  62,  63,  64,  65,  66,  67,  68,  69,  70
  71,  72,  73,  74,  75,  76,  77,  78,  79,  80,  81, 190, 191, 192, 193, 194
 195, 196, 197, 198, 199, 200, 201, 202, 203, 204, 205, 206, 207, 208, 209, 210
 211, 212, 213
*Elset, elset=Set-6, instance=Part-1-1
    1,   14,   27,   40,   53,   66,   79,   92,  105,  118,  131,  144,  157,  170,  183,  196
  209,  222,  235,  248,  261,  274,  287,  300,  313,  988, 1001, 1014, 1027, 1040, 1053, 1066
 1079, 1092, 1105, 1118, 1131, 1144, 1157, 1170, 1183, 1196, 1209, 1222, 1235, 1248, 1261, 1274
 1287, 1300
*Nset, nset=Set-7, instance=Part-1-1
   5,   6,   8,  94,  95,  96,  97,  98,  99, 100, 101, 102, 103, 104, 105, 106
 107, 108, 109, 110, 111, 112, 113, 114, 115, 116, 117, 166, 167, 168, 169, 170
 171, 172, 173, 174, 175, 176, 177, 178, 179, 180, 181, 182, 183, 184, 185, 186
 187, 188, 189
*Elset, elset=Set-7, instance=Part-1-1
 338, 351, 364, 377, 390, 403, 416, 429, 442, 455, 468, 481, 494, 507, 520, 533
 546, 559, 572, 585, 598, 611, 624, 637, 650, 651, 664, 677, 690, 703, 716, 729
 742, 755, 768, 781, 794, 807, 820, 833, 846, 859, 872, 885, 898, 911, 924, 937
 950, 963
*Nset, nset=Set-8, instance=Part-1-1
   5,   6,   8,  94,  95,  96,  97,  98,  99, 100, 101, 102, 103, 104, 105, 106
 107, 108, 109, 110, 111, 112, 113, 114, 115, 116, 117, 166, 167, 168, 169, 170
 171, 172, 173, 174, 175, 176, 177, 178, 179, 180, 181, 182, 183, 184, 185, 186
 187, 188, 189
*Elset, elset=Set-8, instance=Part-1-1
 338, 351, 364, 377, 390, 403, 416, 429, 442, 455, 468, 481, 494, 507, 520, 533
 546, 559, 572, 585, 598, 611, 624, 637, 650, 651, 664, 677, 690, 703, 716, 729
 742, 755, 768, 781, 794, 807, 820, 833, 846, 859, 872, 885, 898, 911, 924, 937
 950, 963
*Nset, nset=_PickedSet16, internal, instance=Part-1-1, generate
    1,  1377,     1
*Elset, elset=_PickedSet16, internal, instance=Part-1-1, generate
    1,  1300,     1
*Nset, nset=_PickedSet17, internal, instance=Part-1-1
  2,  3, 22, 23, 24, 25, 26, 27, 28, 29, 30, 31, 32, 33, 34, 35
 36, 37, 38, 39, 40, 41, 42, 43, 44, 45
*Elset, elset=_PickedSet17, internal, instance=Part-1-1
  13,  26,  39,  52,  65,  78,  91, 104, 117, 130, 143, 156, 169, 182, 195, 208
 221, 234, 247, 260, 273, 286, 299, 312, 325, 326, 339, 352, 365, 378, 391, 404
 417, 430, 443, 456, 469, 482, 495, 508, 521, 534, 547, 560, 573, 586, 599, 612
 625, 638
*Enrichment, name=Crack-1, type=PROPAGATION CRACK, elset=_PickedSet16
*End Assembly
** 
** MATERIALS
** 
*Material, name=Material-1
*Damage Initiation, criterion=MAXPE
 1e-07,
*Damage Evolution, type=DISPLACEMENT
 1e-07,
*Elastic
1.,0.
*Initial Conditions, type=ENRICHMENT
Part-1-1.13, 1,Crack-1, -0.0384615, 0.
Part-1-1.13, 2,Crack-1, 1e-06, 0.
Part-1-1.13, 3,Crack-1, 1e-06, -0.04
Part-1-1.13, 4,Crack-1, -0.0384615, -0.04
Part-1-1.26, 1,Crack-1, -0.0384615
Part-1-1.26, 2,Crack-1, 1e-06
Part-1-1.26, 3,Crack-1, 1e-06
Part-1-1.26, 4,Crack-1, -0.0384615
Part-1-1.39, 1,Crack-1, -0.0384615
Part-1-1.39, 2,Crack-1, 1e-06
Part-1-1.39, 3,Crack-1, 1e-06
Part-1-1.39, 4,Crack-1, -0.0384615
Part-1-1.52, 1,Crack-1, -0.0384615
Part-1-1.52, 2,Crack-1, 1e-06
Part-1-1.52, 3,Crack-1, 1e-06
Part-1-1.52, 4,Crack-1, -0.0384615
Part-1-1.65, 1,Crack-1, -0.0384615
Part-1-1.65, 2,Crack-1, 1e-06
Part-1-1.65, 3,Crack-1, 1e-06
Part-1-1.65, 4,Crack-1, -0.0384615
** ... 80 like lines cut
** 
** BOUNDARY CONDITIONS
** 
** Name: BC-1 Type: Displacement/Rotation
*Boundary
Set-6, 1, 1
Set-6, 2, 2
** ----------------------------------------------------------------
** 
** STEP: Step-1
** 
*Step, name=Step-1, nlgeom=NO, inc=10000
*Static
1., 500., 0.005, 10.
** 
** BOUNDARY CONDITIONS
** 
** Name: BC-2 Type: Velocity/Angular velocity
*Boundary, type=VELOCITY
Set-8, 1, 1, 0.0001
** 
** INTERACTIONS
** 
** Interaction: Int-1
*Enrichment Activation, name=Crack-1, activate=ON
** 
** OUTPUT REQUESTS
** 
*Restart, write, frequency=0
** 
** FIELD OUTPUT: F-Output-1
** 
*Output, field
*Node Output
CF, PHILSM, PSILSM, RF, U
*Element Output, directions=YES
LE, PE, PEEQ, PEMAG, S, STATUS, STATUSXFEM
*Contact Output
CDISP, CSTRESS
** 
** HISTORY OUTPUT: H-Output-1
** 
*Output, history, variable=PRESELECT
*End Step
