*Heading
** Job name: Notched-plate-refined-22 Model name: Model-1
** Generated by: Abaqus/CAE 6.14-1
*Preprint, echo=NO, model=NO, history=NO, contact=NO
**
** PARTS
**
*Part, name=Notched-plate
*Node
      1, 0.0949999988, 0.0893969983
      2, 0.0949999988,           0.
      3,  0.150000006,           0.
      4,  0.150000006, 0.0893969983
      5, 0.0549999997, 0.0893969983
      6,           0., 0.0893969983
      7,           0.,           0.
      8, 0.0549999997,           0.
      9, 0.0949999988,  0.144397005
     10,  0.150000006,  0.144397005
     11,  0.150000006,  0.200000003
     12, 0.0949999988,  0.200000003
     13,           0.,  0.144397005
     14, 0.0549999997,  0.144397005
     15, 0.0549999997,  0.200000003
     16,           0.,  0.200000003
     17,  0.075000003,  0.140000001
     18, 0.0949999988, 0.0864171013
     19, 0.0949999988, 0.0834372044
     20, 0.0949999988, 0.0804572999
** ... 5556 like lines cut
*Element, type=CPS4R
  1,    1,   18,  698,  103
  2,   18,   19,  699,  698
  3,   19,   20,  700,  699
  4,   20,   21,  701,  700
  5,   21,   22,  702,  701
  6,   22,   23,  703,  702
  7,   23,   24,  704,  703
  8,   24,   25,  705,  704
  9,   25,   26,  706,  705
 10,   26,   27,  707,  706
 11,   27,   28,  708,  707
 12,   28,   29,  709,  708
 13,   29,   30,  710,  709
 14,   30,   31,  711,  710
 15,   31,   32,  712,  711
 16,   32,   33,  713,  712
 17,   33,   34,  714,  713
 18,   34,   35,  715,  714
 19,   35,   36,  716,  715
 20,   36,   37,  717,  716
** ... 5356 like lines cut
*Nset, nset=Notched-plate-geometry, generate
    1,  5576,     1
*Elset, elset=Notched-plate-geometry, generate
    1,  5376,     1
** Section: Plate-section
*Solid Section, elset=Notched-plate-geometry, material=Test
,
*End Part
**  
**
** ASSEMBLY
**
*Assembly, name=Assembly
**  
*Instance, name=Notched-plate-1, part=Notched-plate
*End Instance
**  
*Nset, nset=Bottom, instance=Notched-plate-1
   2,   3,   7,   8,  47,  48,  49,  50,  51,  52,  53,  54,  55,  56,  57,  58
  59,  60, 147, 148, 149, 150, 151, 152, 153, 154, 155, 156, 157, 158, 159, 160
 374, 375, 376, 377, 378, 379, 380, 381, 382, 383, 384, 385, 386, 387, 388, 389
 390, 391, 392, 393, 394, 395, 396, 397, 398, 399, 400, 401, 402, 403, 404, 405
 406, 407, 408, 409, 410, 411, 412
*Elset, elset=Bottom, instance=Notched-plate-1
   30,   60,   90,  120,  150,  180,  210,  240,  270,  300,  330,  360,  390,  420,  450,  886
  887,  888,  889,  890,  891,  892,  893,  894,  895,  896,  897,  898,  899,  900, 1935, 1965
 1995, 2025, 2055, 2085, 2115, 2145, 2175, 2205, 2235, 2265, 2295, 2325, 2355, 2385, 2415, 2445
 2475, 2505, 2535, 2565, 2595, 2625, 2655, 2685, 2715, 2745, 2775, 2805, 2835, 2865, 2895, 2925
 2955, 2985, 3015, 3045, 3075, 3105
*Elset, elset="Cracked elements", instance=Notched-plate-1, generate
 3211,  3215,     1
*Nset, nset=Top, instance=Notched-plate-1
  11,  12,  15,  16, 218, 219, 220, 221, 222, 223, 224, 225, 226, 227, 228, 229
 230, 231, 274, 275, 276, 277, 278, 279, 280, 281, 282, 283, 284, 285, 286, 287
 565, 566, 567, 568, 569, 570, 571, 572, 573, 574, 575, 576, 577, 578, 579, 580
 581, 582, 583, 584, 585, 586, 587, 588, 589, 590, 591, 592, 593, 594, 595, 596
 597, 598, 599, 600, 601, 602, 603
*Elset, elset=Top, instance=Notched-plate-1
 1111, 1112, 1113, 1114, 1115, 1116, 1117, 1118, 1119, 1120, 1121, 1122, 1123, 1124, 1125, 1336
 1337, 1338, 1339, 1340, 1341, 1342, 1343, 1344, 1345, 1346, 1347, 1348, 1349, 1350, 3676, 3691
 3706, 3721, 3736, 3751, 3766, 3781, 3796, 3811, 3826, 3841, 3856, 3871, 3886, 3901, 3916, 3931
 3946, 3961, 3976, 3991, 4006, 4021, 4036, 4051, 4066, 4081, 4096, 4111, 4126, 4141, 4156, 4171
 4186, 4201, 4216, 4231, 4246, 4261
*End Assembly
** 
** MATERIALS
** 
*Material, name=Test
*Density
1.,
*Elastic
1.,0.
** ----------------------------------------------------------------
** 
** STEP: Step-1
** 
*Step, name=Step-1, nlgeom=NO
*Dynamic, Explicit
, 1.
*Bulk Viscosity
0.06, 1.2
** 
** BOUNDARY CONDITIONS
** 
** Name: Bottom-bc Type: Velocity/Angular velocity
*Boundary, type=VELOCITY
Bottom, 2, 2, -0.001
** Name: Top-bc Type: Velocity/Angular velocity
*Boundary, type=VELOCITY
Top, 2, 2, 0.001
** 
** OUTPUT REQUESTS
** 
*Restart, write, number interval=1, time marks=NO
** 
** FIELD OUTPUT: F-Output-1
** 
*Output, field, variable=PRESELECT
** 
** HISTORY OUTPUT: H-Output-1
** 
*Output, history, variable=PRESELECT
*End Step
