*Heading
** Job name: Notched-plate-refined-22 Model name: Model-1
** Generated by: Abaqus/CAE 6.14-1
*Preprint, echo=NO, model=NO, history=NO, contact=NO
**
** PARTS
**
*Part, name=Notched-plate
*Node
      1, 0.0549999997,  0.200000003
      2, 0.0549999997,  0.144999996
      3,  0.075000003,  0.144999996
      4, 0.0949999988,  0.144999996
      5, 0.0949999988,  0.200000003
      6, 0.0643934011,  0.135606602
      7,  0.075000003,  0.140000001
      8, 0.0856066048,  0.135606602
      9,  0.150000006,  0.144999996
     10,  0.150000006,  0.200000003
     11,           0.,  0.144999996
     12,           0.,  0.200000003
     13, 0.0549999997,        0.125
     14, 0.0599999987,        0.125
     15, 0.0900000036,        0.125
     16, 0.0949999988,        0.125
     17, 0.0949999988,  0.104999997
     18,  0.150000006,  0.104999997
     19,  0.150000006, 0.0937940031
     20, 0.0949999988, 0.0937940031
** ... 10956 like lines cut
*Element, type=CPS4R
   1,    1,   33, 1116,  155
   2,   33,   34, 1117, 1116
   3,   34,   35, 1118, 1117
   4,   35,   36, 1119, 1118
   5,   36,   37, 1120, 1119
   6,   37,   38, 1121, 1120
   7,   38,   39, 1122, 1121
   8,   39,   40, 1123, 1122
   9,   40,   41, 1124, 1123
  10,   41,   42, 1125, 1124
  11,   42,   43, 1126, 1125
  12,   43,   44, 1127, 1126
  13,   44,   45, 1128, 1127
  14,   45,   46, 1129, 1128
  15,   46,   47, 1130, 1129
  16,   47,   48, 1131, 1130
  17,   48,   49, 1132, 1131
  18,   49,   50, 1133, 1132
  19,   50,   51, 1134, 1133
  20,   51,   52, 1135, 1134
** ... 10676 like lines cut
*Nset, nset=Notched-plate-geometry, generate
     1,  10976,      1
*Elset, elset=Notched-plate-geometry, generate
     1,  10696,      1
*Elset, elset=Cracked-elements, generate
 9878,  9887,     1
** Section: Plate-section
*Solid Section, elset=Notched-plate-geometry, material=Test
,
*End Part
**  
**
** ASSEMBLY
**
*Assembly, name=Assembly
**  
*Instance, name=Notched-plate-1, part=Notched-plate
*End Instance
**  
*Nset, nset=Bottom, instance=Notched-plate-1
  21,  22,  25,  28, 594, 595, 596, 597, 598, 599, 600, 601, 602, 603, 604, 605
 606, 607, 608, 609, 610, 611, 612, 613, 614, 615, 616, 617, 618, 619, 860, 861
 862, 863, 864, 865, 866, 867, 868, 869, 870, 871, 872, 873, 874, 875, 876, 877
 878, 879, 880, 881, 882, 883, 884, 885, 951, 952, 953, 954, 955, 956, 957, 958
 959, 960, 961, 962, 963, 964, 965, 966, 967, 968, 969, 970, 971, 972, 973, 974
 975, 976, 977, 978, 979, 980, 981, 982, 983, 984, 985
*Elset, elset=Bottom, instance=Notched-plate-1
 5222, 5223, 5224, 5225, 5226, 5227, 5228, 5229, 5230, 5231, 5232, 5233, 5234, 5235, 5236, 5237
 5238, 5239, 5240, 5241, 5242, 5243, 5244, 5245, 5246, 5247, 5248, 6194, 6241, 6288, 6335, 6382
 6429, 6476, 6523, 6570, 6617, 6664, 6711, 6758, 6805, 6852, 6899, 6946, 6993, 7040, 7087, 7134
 7181, 7228, 7275, 7322, 7369, 7416, 8070, 8117, 8164, 8211, 8258, 8305, 8352, 8399, 8446, 8493
 8540, 8587, 8634, 8681, 8728, 8775, 8822, 8869, 8916, 8963, 9010, 9057, 9104, 9151, 9198, 9245
 9292, 9339, 9386, 9433, 9480, 9527, 9574, 9621, 9668, 9715
*Nset, nset=Top, instance=Notched-plate-1
   1,   5,  10,  12, 121, 122, 123, 124, 125, 126, 127, 128, 129, 130, 131, 132
 133, 134, 135, 136, 137, 138, 139, 140, 141, 142, 143, 144, 145, 146, 147, 148
 149, 150, 151, 152, 153, 154, 155, 264, 265, 266, 267, 268, 269, 270, 271, 272
 273, 274, 275, 276, 277, 278, 279, 280, 281, 282, 283, 284, 285, 286, 287, 288
 289, 316, 317, 318, 319, 320, 321, 322, 323, 324, 325, 326, 327, 328, 329, 330
 331, 332, 333, 334, 335, 336, 337, 338, 339, 340, 341
*Elset, elset=Top, instance=Notched-plate-1
    1,   29,   57,   85,  113,  141,  169,  197,  225,  253,  281,  309,  337,  365,  393,  421
  449,  477,  505,  533,  561,  589,  617,  645,  673,  701,  729,  757,  785,  813,  841,  869
  897,  925,  953,  981, 1297, 1325, 1353, 1381, 1409, 1437, 1465, 1493, 1521, 1549, 1577, 1605
 1633, 1661, 1689, 1717, 1745, 1773, 1801, 1829, 1857, 1885, 1913, 1941, 1969, 1997, 2025, 2782
 2783, 2784, 2785, 2786, 2787, 2788, 2789, 2790, 2791, 2792, 2793, 2794, 2795, 2796, 2797, 2798
 2799, 2800, 2801, 2802, 2803, 2804, 2805, 2806, 2807, 2808
*End Assembly
** 
** MATERIALS
** 
*Material, name=Test
*Density
1.,
*Elastic
1.,0.
** ----------------------------------------------------------------
** 
** STEP: Step-1
** 
*Step, name=Step-1, nlgeom=NO
*Dynamic, Explicit
, 1.
*Bulk Viscosity
0.06, 1.2
** 
** BOUNDARY CONDITIONS
** 
** Name: Bottom-bc Type: Velocity/Angular velocity
*Boundary, type=VELOCITY
Bottom, 2, 2, -0.001
** Name: Top-bc Type: Velocity/Angular velocity
*Boundary, type=VELOCITY
Top, 2, 2, 0.001
** 
** OUTPUT REQUESTS
** 
*Restart, write, number interval=1, time marks=NO
** 
** FIELD OUTPUT: F-Output-1
** 
*Output, field, variable=PRESELECT
** 
** HISTORY OUTPUT: H-Output-1
** 
*Output, history, variable=PRESELECT
*End Step
