*Heading
** Job name: Notched-plate-refined-21 Model name: Model-1
** Generated by: Abaqus/CAE 6.14-1
*Preprint, echo=NO, model=NO, history=NO, contact=NO
**
** PARTS
**
*Part, name=Notched-plate
*Node
      1, 0.0549999997,  0.200000003
      2, 0.0549999997,  0.144999996
      3,  0.075000003,  0.144999996
      4, 0.0949999988,  0.144999996
      5, 0.0949999988,  0.200000003
      6, 0.0643934011,  0.135606602
      7,  0.075000003,  0.140000001
      8, 0.0856066048,  0.135606602
      9,  0.150000006,  0.144999996
     10,  0.150000006,  0.200000003
     11,           0.,  0.144999996
     12,           0.,  0.200000003
     13, 0.0549999997,        0.125
     14, 0.0599999987,        0.125
     15, 0.0900000036,        0.125
     16, 0.0949999988,        0.125
     17, 0.0949999988,  0.104999997
     18,  0.150000006,  0.104999997
     19,  0.150000006, 0.0937940031
     20, 0.0949999988, 0.0937940031
** ... 2893 like lines cut
*Element, type=CPS4R
  1,   1,  33, 560,  91
  2,  33,  34, 561, 560
  3,  34,  35, 562, 561
  4,  35,  36, 563, 562
  5,  36,  37, 564, 563
  6,  37,  38, 565, 564
  7,  38,  39, 566, 565
  8,  39,  40, 567, 566
  9,  40,  41, 568, 567
 10,  41,  42, 569, 568
 11,  42,  43, 570, 569
 12,  43,  44, 571, 570
 13,  44,  45, 572, 571
 14,  45,   2,  46, 572
 15,  91, 560, 573,  90
 16, 560, 561, 574, 573
 17, 561, 562, 575, 574
 18, 562, 563, 576, 575
 19, 563, 564, 577, 576
 20, 564, 565, 578, 577
** ... 2750 like lines cut
*Nset, nset=Notched-plate-geometry, generate
    1,  2913,     1
*Elset, elset=Notched-plate-geometry, generate
    1,  2770,     1
*Elset, elset=Cracked-elements, generate
 2549,  2553,     1
** Section: Plate-section
*Solid Section, elset=Notched-plate-geometry, material=Test
,
*End Part
**  
**
** ASSEMBLY
**
*Assembly, name=Assembly
**  
*Instance, name=Notched-plate-1, part=Notched-plate
*End Instance
**  
*Nset, nset=Bottom, instance=Notched-plate-1
  21,  22,  25,  28, 306, 307, 308, 309, 310, 311, 312, 313, 314, 315, 316, 317
 318, 436, 437, 438, 439, 440, 441, 442, 443, 444, 445, 446, 447, 448, 481, 482
 483, 484, 485, 486, 487, 488, 489, 490, 491, 492, 493, 494, 495, 496, 497
*Elset, elset=Bottom, instance=Notched-plate-1
 1349, 1350, 1351, 1352, 1353, 1354, 1355, 1356, 1357, 1358, 1359, 1360, 1361, 1362, 1615, 1638
 1661, 1684, 1707, 1730, 1753, 1776, 1799, 1822, 1845, 1868, 1891, 1914, 2115, 2138, 2161, 2184
 2207, 2230, 2253, 2276, 2299, 2322, 2345, 2368, 2391, 2414, 2437, 2460, 2483, 2506
*Nset, nset=Top, instance=Notched-plate-1
   1,   5,  10,  12,  75,  76,  77,  78,  79,  80,  81,  82,  83,  84,  85,  86
  87,  88,  89,  90,  91, 143, 144, 145, 146, 147, 148, 149, 150, 151, 152, 153
 154, 155, 169, 170, 171, 172, 173, 174, 175, 176, 177, 178, 179, 180, 181
*Elset, elset=Top, instance=Notched-plate-1
   1,  15,  29,  43,  57,  71,  85,  99, 113, 127, 141, 155, 169, 183, 197, 211
 225, 239, 325, 339, 353, 367, 381, 395, 409, 423, 437, 451, 465, 479, 493, 507
 703, 704, 705, 706, 707, 708, 709, 710, 711, 712, 713, 714, 715, 716
*End Assembly
** 
** MATERIALS
** 
*Material, name=Test
*Density
1.,
*Elastic
1.,0.
** ----------------------------------------------------------------
** 
** STEP: Step-1
** 
*Step, name=Step-1, nlgeom=NO
*Dynamic, Explicit
, 1.
*Bulk Viscosity
0.06, 1.2
** 
** BOUNDARY CONDITIONS
** 
** Name: Bottom-bc Type: Velocity/Angular velocity
*Boundary, type=VELOCITY
Bottom, 2, 2, -0.001
** Name: Top-bc Type: Velocity/Angular velocity
*Boundary, type=VELOCITY
Top, 2, 2, 0.001
** 
** OUTPUT REQUESTS
** 
*Restart, write, number interval=1, time marks=NO
** 
** FIELD OUTPUT: F-Output-1
** 
*Output, field, variable=PRESELECT
** 
** HISTORY OUTPUT: H-Output-1
** 
*Output, history, variable=PRESELECT
*End Step
