*Heading
** Job name: XFEM-pure-shear Model name: Model-1
** Generated by: Abaqus/CAE 6.14-1
*Preprint, echo=NO, model=NO, history=NO, contact=NO
**
** PARTS
**
*Part, name=Part-1
*End Part
**  
**
** ASSEMBLY
**
*Assembly, name=Assembly
**  
*Instance, name=Part-1-1, part=Part-1
*Node
      1,  0.400000006,           0.
      2,  0.400000006,           1.
      3,           0.,           1.
      4,           0.,           0.
      5,  0.400000006,           2.
      6,           0.,           2.
      7,           1.,           1.
      8,           1.,           2.
      9,           1.,           0.
     10,  0.400000006, 0.0399999991
     11,  0.400000006, 0.0799999982
     12,  0.400000006,  0.119999997
     13,  0.400000006,  0.159999996
     14,  0.400000006,  0.200000003
     15,  0.400000006,  0.239999995
     16,  0.400000006,  0.280000001
     17,  0.400000006,  0.319999993
     18,  0.400000006,  0.360000014
     19,  0.400000006,  0.400000006
     20,  0.400000006,  0.439999998
** ... 1306 like lines cut
*Element, type=CPS4R
  1,   1,  10, 223,  75
  2,  10,  11, 224, 223
  3,  11,  12, 225, 224
  4,  12,  13, 226, 225
  5,  13,  14, 227, 226
  6,  14,  15, 228, 227
  7,  15,  16, 229, 228
  8,  16,  17, 230, 229
  9,  17,  18, 231, 230
 10,  18,  19, 232, 231
 11,  19,  20, 233, 232
 12,  20,  21, 234, 233
 13,  21,  22, 235, 234
 14,  22,  23, 236, 235
 15,  23,  24, 237, 236
 16,  24,  25, 238, 237
 17,  25,  26, 239, 238
 18,  26,  27, 240, 239
 19,  27,  28, 241, 240
 20,  28,  29, 242, 241
** ... 1230 like lines cut
*Nset, nset=Set-1, generate
    1,  1326,     1
*Elset, elset=Set-1, generate
    1,  1250,     1
** Section: Section-1
*Solid Section, elset=Set-1, material=Material-1
,
*End Instance
**  
*Nset, nset=Set-1, instance=Part-1-1
  2,  3, 34, 35, 36, 37, 38, 39, 40, 41, 42
*Elset, elset=Set-1, instance=Part-1-1
  25,  50,  75, 100, 125, 150, 175, 200, 225, 250, 251, 276, 301, 326, 351, 376
 401, 426, 451, 476
*Nset, nset=Set-2, instance=Part-1-1
  2,  3, 34, 35, 36, 37, 38, 39, 40, 41, 42
*Elset, elset=Set-2, instance=Part-1-1
  25,  50,  75, 100, 125, 150, 175, 200, 225, 250, 251, 276, 301, 326, 351, 376
 401, 426, 451, 476
*Nset, nset=Set-7, instance=Part-1-1
   1,   4,   9,  67,  68,  69,  70,  71,  72,  73,  74,  75, 185, 186, 187, 188
 189, 190, 191, 192, 193, 194, 195, 196, 197, 198
*Elset, elset=Set-7, instance=Part-1-1
    1,   26,   51,   76,  101,  126,  151,  176,  201,  226,  900,  925,  950,  975, 1000, 1025
 1050, 1075, 1100, 1125, 1150, 1175, 1200, 1225, 1250
*Nset, nset=Set-8, instance=Part-1-1
   5,   6,   8, 100, 101, 102, 103, 104, 105, 106, 107, 108, 171, 172, 173, 174
 175, 176, 177, 178, 179, 180, 181, 182, 183, 184
*Elset, elset=Set-8, instance=Part-1-1
 275, 300, 325, 350, 375, 400, 425, 450, 475, 500, 501, 526, 551, 576, 601, 626
 651, 676, 701, 726, 751, 776, 801, 826, 851
*Nset, nset=_PickedSet8, internal, instance=Part-1-1, generate
    1,  1326,     1
*Elset, elset=_PickedSet8, internal, instance=Part-1-1, generate
    1,  1250,     1
*Nset, nset=_PickedSet9, internal, instance=Part-1-1
  2,  3, 34, 35, 36, 37, 38, 39, 40, 41, 42
*Elset, elset=_PickedSet9, internal, instance=Part-1-1
  25,  50,  75, 100, 125, 150, 175, 200, 225, 250, 251, 276, 301, 326, 351, 376
 401, 426, 451, 476
*Enrichment, name=Crack-1, type=PROPAGATION CRACK, elset=_PickedSet8
*End Assembly
** 
** MATERIALS
** 
*Material, name=Material-1
*Damage Initiation, criterion=MAXPE
 1e-07,
*Damage Evolution, type=DISPLACEMENT
 1e-07,
*Elastic
1.,0.
*Initial Conditions, type=ENRICHMENT
Part-1-1.25, 1,Crack-1, -0.04, 0.
Part-1-1.25, 2,Crack-1, 1e-06, 0.
Part-1-1.25, 3,Crack-1, 1e-06, -0.04
Part-1-1.25, 4,Crack-1, -0.04, -0.04
Part-1-1.50, 1,Crack-1, -0.04
Part-1-1.50, 2,Crack-1, 1e-06
Part-1-1.50, 3,Crack-1, 1e-06
Part-1-1.50, 4,Crack-1, -0.04
Part-1-1.75, 1,Crack-1, -0.04
Part-1-1.75, 2,Crack-1, 1e-06
Part-1-1.75, 3,Crack-1, 1e-06
Part-1-1.75, 4,Crack-1, -0.04
Part-1-1.100, 1,Crack-1, -0.04
Part-1-1.100, 2,Crack-1, 1e-06
Part-1-1.100, 3,Crack-1, 1e-06
Part-1-1.100, 4,Crack-1, -0.04
Part-1-1.125, 1,Crack-1, -0.04
Part-1-1.125, 2,Crack-1, 1e-06
Part-1-1.125, 3,Crack-1, 1e-06
Part-1-1.125, 4,Crack-1, -0.04
** ... 20 like lines cut
** 
** BOUNDARY CONDITIONS
** 
** Name: BC-1 Type: Displacement/Rotation
*Boundary
Set-7, 1, 1
Set-7, 2, 2
** ----------------------------------------------------------------
** 
** STEP: Step-1
** 
*Step, name=Step-1, nlgeom=NO, inc=10000
*Static
100., 100., 0.001, 100.
** 
** BOUNDARY CONDITIONS
** 
** Name: BC-2 Type: Velocity/Angular velocity
*Boundary, type=VELOCITY
Set-8, 1, 1, 5e-05
** 
** INTERACTIONS
** 
** Interaction: Int-1
*Enrichment Activation, name=Crack-1, activate=ON
** 
** OUTPUT REQUESTS
** 
*Restart, write, frequency=0
** 
** FIELD OUTPUT: F-Output-1
** 
*Output, field
*Node Output
CF, PHILSM, PSILSM, RF, U
*Element Output, directions=YES
LE, PE, PEEQ, PEMAG, S, STATUS, STATUSXFEM
*Contact Output
CDISP, CSTRESS
** 
** HISTORY OUTPUT: H-Output-1
** 
*Output, history, variable=PRESELECT
*End Step
