*Heading
** Job name: straight_crack_sif Model name: Model-1
** Generated by: Abaqus/CAE 6.14-1
*Preprint, echo=NO, model=NO, history=NO, contact=NO
**
** PARTS
**
*Part, name=Plate
*Node
      1,           0.,           0.
      2, 0.00100000005,           0.
      3, 0.00200000009,           0.
      4, 0.00300000003,           0.
      5, 0.00400000019,           0.
      6, 0.00499999989,           0.
      7, 0.00600000005,           0.
      8, 0.00700000022,           0.
      9, 0.00800000038,           0.
     10, 0.00899999961,           0.
     11,           0., 0.00100000005
     12, 0.00100000005, 0.00100000005
     13, 0.00200000009, 0.00100000005
     14, 0.00300000003, 0.00100000005
     15, 0.00400000019, 0.00100000005
     16, 0.00499999989, 0.00100000005
     17, 0.00600000005, 0.00100000005
     18, 0.00700000022, 0.00100000005
     19, 0.00800000038, 0.00100000005
     20, 0.00899999961, 0.00100000005
** ... 360 like lines cut
*Element, type=CPS4R
  1,   1,   2,  12,  11
  2,   2,   3,  13,  12
  3,   3,   4,  14,  13
  4,   4,   5,  15,  14
  5,   5,   6,  16,  15
  6,   6,   7,  17,  16
  7,   7,   8,  18,  17
  8,   8,   9,  19,  18
  9,   9,  10,  20,  19
 10,  11,  12,  22,  21
 11,  12,  13,  23,  22
 12,  13,  14,  24,  23
 13,  14,  15,  25,  24
 14,  15,  16,  26,  25
 15,  16,  17,  27,  26
 16,  17,  18,  28,  27
 17,  18,  19,  29,  28
 18,  19,  20,  30,  29
 19,  21,  22,  32,  31
 20,  22,  23,  33,  32
** ... 313 like lines cut
*Nset, nset=Set-1, generate
   1,  380,    1
*Elset, elset=Set-1, generate
   1,  333,    1
*Elset, elset=Crack, generate
 163,  165,    1
** Section: Section-1
*Solid Section, elset=Set-1, material=Mat
,
*End Part
**  
**
** ASSEMBLY
**
*Assembly, name=Assembly
**  
*Instance, name=Plate-1, part=Plate
*End Instance
**  
*Nset, nset=Bottom, instance=Plate-1, generate
  1,  10,   1
*Elset, elset=Bottom, instance=Plate-1, generate
 1,  9,  1
*Nset, nset=Left, instance=Plate-1, generate
   1,  371,   10
*Elset, elset=Left, instance=Plate-1, generate
   1,  325,    9
*Nset, nset=Right, instance=Plate-1, generate
  10,  380,   10
*Elset, elset=Right, instance=Plate-1, generate
   9,  333,    9
*Nset, nset=Top, instance=Plate-1, generate
 371,  380,    1
*Elset, elset=Top, instance=Plate-1, generate
 325,  333,    1
*End Assembly
** 
** MATERIALS
** 
*Material, name=Mat
*Density
8000.,
*Elastic
 2e+11, 0.3
** ----------------------------------------------------------------
** 
** STEP: Step-1
** 
*Step, name=Step-1, nlgeom=YES
*Dynamic, Explicit
, 0.1
*Bulk Viscosity
0.06, 1.2
** 
** BOUNDARY CONDITIONS
** 
** Name: BC-1 Type: Displacement/Rotation
*Boundary
Left, 1, 1
** Name: BC-2 Type: Displacement/Rotation
*Boundary
Right, 1, 1
** 
** OUTPUT REQUESTS
** 
*Restart, write, number interval=1, time marks=NO
** 
** FIELD OUTPUT: F-Output-1
** 
*Output, field, variable=PRESELECT
** 
** HISTORY OUTPUT: H-Output-1
** 
*Output, history, variable=PRESELECT
*End Step
