*Heading
** Job name: Matrix-cracking-density Model name: Model-1
** Generated by: Abaqus/CAE 6.14-1
*Preprint, echo=NO, model=NO, history=NO, contact=NO
**
** PARTS
**
*Part, name=Lamina
*Node
      1,           0.,           0.
      2,  0.300000012,           0.
      3,  0.600000024,           0.
      4,  0.899999976,           0.
      5,   1.20000005,           0.
      6,          1.5,           0.
      7,   1.79999995,           0.
      8,    2.0999999,           0.
      9,    2.4000001,           0.
     10,   2.70000005,           0.
     11,           3.,           0.
     12,   3.29999995,           0.
     13,    3.5999999,           0.
     14,    3.9000001,           0.
     15,   4.19999981,           0.
     16,          4.5,           0.
     17,   4.80000019,           0.
     18,    5.0999999,           0.
     19,    5.4000001,           0.
     20,   5.69999981,           0.
** ... 182 like lines cut
*Element, type=CPS4R
  1,   1,   2, 103, 102
  2,   2,   3, 104, 103
  3,   3,   4, 105, 104
  4,   4,   5, 106, 105
  5,   5,   6, 107, 106
  6,   6,   7, 108, 107
  7,   7,   8, 109, 108
  8,   8,   9, 110, 109
  9,   9,  10, 111, 110
 10,  10,  11, 112, 111
 11,  11,  12, 113, 112
 12,  12,  13, 114, 113
 13,  13,  14, 115, 114
 14,  14,  15, 116, 115
 15,  15,  16, 117, 116
 16,  16,  17, 118, 117
 17,  17,  18, 119, 118
 18,  18,  19, 120, 119
 19,  19,  20, 121, 120
 20,  20,  21, 122, 121
** ... 80 like lines cut
*Nset, nset=Laminate, generate
   1,  202,    1
*Elset, elset=Laminate, generate
   1,  100,    1
** Section: Section-1
*Solid Section, elset=Laminate, material=Test
,
*End Part
**  
**
** ASSEMBLY
**
*Assembly, name=Assembly
**  
*Instance, name=Lamina-1, part=Lamina
*End Instance
**  
*Nset, nset=Bottom, instance=Lamina-1, generate
   1,  101,    1
*Elset, elset=Bottom, instance=Lamina-1, generate
   1,  100,    1
*Nset, nset=Left, instance=Lamina-1
   1, 102
*Elset, elset=Left, instance=Lamina-1
 1,
*Nset, nset=Right, instance=Lamina-1
 101, 202
*Elset, elset=Right, instance=Lamina-1
 100,
*End Assembly
** 
** MATERIALS
** 
*Material, name=Test
*Density
1.,
*Elastic
1.,0.
** ----------------------------------------------------------------
** 
** STEP: Step-1
** 
*Step, name=Step-1, nlgeom=NO
*Dynamic, Explicit
, 1.
*Bulk Viscosity
0., 0.
** 
** BOUNDARY CONDITIONS
** 
** Name: Bottom roller Type: Displacement/Rotation
*Boundary
Bottom, 2, 2
** Name: Left Roller Type: Displacement/Rotation
*Boundary
Left, 1, 1
** Name: Right roller Type: Velocity/Angular velocity
*Boundary, type=VELOCITY
Right, 1, 1, 0.0001
** 
** OUTPUT REQUESTS
** 
*Restart, write, number interval=1, time marks=NO
** 
** FIELD OUTPUT: F-Output-1
** 
*Output, field, variable=PRESELECT
** 
** HISTORY OUTPUT: H-Output-1
** 
*Output, history, variable=PRESELECT
*End Step
