*Heading
** Job name: Miehe-pure-shear Model name: Model-1
** Generated by: Abaqus/CAE 6.14-1
*Preprint, echo=NO, model=NO, history=NO, contact=NO
**
** PARTS
**
*Part, name=Part-1
*Node
      1,           0.,           0.
      2, 0.0500000007,           0.
      3,  0.100000001,           0.
      4,  0.150000006,           0.
      5,  0.200000003,           0.
      6,         0.25,           0.
      7,  0.300000012,           0.
      8,  0.349999994,           0.
      9,  0.400000006,           0.
     10,  0.449999988,           0.
     11,          0.5,           0.
     12,  0.550000012,           0.
     13,  0.600000024,           0.
     14,  0.649999976,           0.
     15,  0.699999988,           0.
     16,         0.75,           0.
     17,  0.800000012,           0.
     18,  0.850000024,           0.
     19,  0.899999976,           0.
     20,  0.949999988,           0.
** ... 882 like lines cut
*Element, type=CPS4R
  1,   1,   2,  43,  42
  2,   2,   3,  44,  43
  3,   3,   4,  45,  44
  4,   4,   5,  46,  45
  5,   5,   6,  47,  46
  6,   6,   7,  48,  47
  7,   7,   8,  49,  48
  8,   8,   9,  50,  49
  9,   9,  10,  51,  50
 10,  10,  11,  52,  51
 11,  11,  12,  53,  52
 12,  12,  13,  54,  53
 13,  13,  14,  55,  54
 14,  14,  15,  56,  55
 15,  15,  16,  57,  56
 16,  16,  17,  58,  57
 17,  17,  18,  59,  58
 18,  18,  19,  60,  59
 19,  19,  20,  61,  60
 20,  20,  21,  62,  61
** ... 820 like lines cut
*Nset, nset=Set-5, generate
   1,  902,    1
*Elset, elset=Set-5, generate
   1,  840,    1
*Elset, elset=Cracked, generate
 401,  420,    1
** Section: Section-1
*Solid Section, elset=Set-5, material=Material-1
,
*End Part
**  
**
** ASSEMBLY
**
*Assembly, name=Assembly
**  
*Instance, name=Part-1-1, part=Part-1
*End Instance
**  
*Nset, nset=Bottom, instance=Part-1-1, generate
  1,  41,   1
*Elset, elset=Bottom, instance=Part-1-1, generate
  1,  40,   1
*Nset, nset=Top, instance=Part-1-1, generate
 862,  902,    1
*Elset, elset=Top, instance=Part-1-1, generate
 801,  840,    1
*End Assembly
** 
** MATERIALS
** 
*Material, name=Material-1
*Density
1.,
*Elastic
1.,0.
** ----------------------------------------------------------------
** 
** STEP: Step-1
** 
*Step, name=Step-1, nlgeom=YES
*Dynamic, Explicit
, 1.
*Bulk Viscosity
0.06, 1.2
** 
** BOUNDARY CONDITIONS
** 
** Name: BC-1 Type: Displacement/Rotation
*Boundary
Bottom, 1, 1
Bottom, 2, 2
** Name: BC-2 Type: Velocity/Angular velocity
*Boundary, type=VELOCITY
Top, 1, 1, 0.0001
** 
** OUTPUT REQUESTS
** 
*Restart, write, number interval=1, time marks=NO
** 
** FIELD OUTPUT: F-Output-1
** 
*Output, field, variable=PRESELECT
** 
** HISTORY OUTPUT: H-Output-1
** 
*Output, history, variable=PRESELECT
*End Step
