*Heading
** Job name: j-benchmark-90 Model name: Model-1
** Generated by: Abaqus/CAE 6.14-1
*Preprint, echo=NO, model=NO, history=NO, contact=NO
**
** PARTS
**
*Part, name=Plate
*Node
      1,           0.,           0.
      2,           0., -0.0500000007
      3,           0., -0.100000001
      4,           0., -0.150000006
      5,           0., -0.200000003
      6,           0.,        -0.25
      7,           0., -0.300000012
      8,           0., -0.349999994
      9,           0., -0.400000006
     10,           0., -0.449999988
     11,           0.,         -0.5
     12,           0., -0.550000012
     13,           0., -0.600000024
     14,           0., -0.649999976
     15,           0., -0.699999988
     16,           0.,        -0.75
     17,           0., -0.800000012
     18,           0., -0.850000024
     19,           0., -0.899999976
     20,           0., -0.949999988
** ... 862 like lines cut
*Element, type=CPS4R
  1,   1,   2,  23,  22
  2,   2,   3,  24,  23
  3,   3,   4,  25,  24
  4,   4,   5,  26,  25
  5,   5,   6,  27,  26
  6,   6,   7,  28,  27
  7,   7,   8,  29,  28
  8,   8,   9,  30,  29
  9,   9,  10,  31,  30
 10,  10,  11,  32,  31
 11,  11,  12,  33,  32
 12,  12,  13,  34,  33
 13,  13,  14,  35,  34
 14,  14,  15,  36,  35
 15,  15,  16,  37,  36
 16,  16,  17,  38,  37
 17,  17,  18,  39,  38
 18,  18,  19,  40,  39
 19,  19,  20,  41,  40
 20,  20,  21,  42,  41
** ... 800 like lines cut
*Nset, nset=Set-1, generate
   1,  882,    1
*Elset, elset=Set-1, generate
   1,  820,    1
*Elset, elset=Cracked, generate
 401,  408,    1
** Section: Section-1
*Solid Section, elset=Set-1, material=Test
,
*End Part
**  
**
** ASSEMBLY
**
*Assembly, name=Assembly
**  
*Instance, name=SENT-1, part=Plate
*End Instance
**  
*Nset, nset=Bottom, instance=SENT-1, generate
  1,  21,   1
*Elset, elset=Bottom, instance=SENT-1, generate
  1,  20,   1
*Nset, nset=Roller, instance=SENT-1, generate
   1,  862,   21
*Elset, elset=Roller, instance=SENT-1, generate
   1,  801,   20
*Nset, nset=Top, instance=SENT-1, generate
 862,  882,    1
*Elset, elset=Top, instance=SENT-1, generate
 801,  820,    1
*Nset, nset=_T-Rotated-csys, internal
Bottom, 
Roller, 
Top, 
*Transform, nset=_T-Rotated-csys
          0.,          -1.,           0.,           1.,           0.,           0.
*End Assembly
** 
** MATERIALS
** 
*Material, name="SENT specimen material"
*Density
7860.,
*Elastic
 2.07e+11, 0.3
*Material, name=Test
*Density
1.,
*Elastic
1.,0.
** ----------------------------------------------------------------
** 
** STEP: Step-1
** 
*Step, name=Step-1, nlgeom=YES
*Dynamic, Explicit
, 1.
*Bulk Viscosity
0.06, 1.2
** 
** BOUNDARY CONDITIONS
** 
** Name: Bottom BC Type: Displacement/Rotation
*Boundary
Bottom, 1, 1
Bottom, 2, 2
** Name: Left BC Type: Displacement/Rotation
*Boundary
Roller, 1, 1
** Name: Top BC Type: Velocity/Angular velocity
*Boundary, type=VELOCITY
Top, 2, 2, 0.0005
** 
** OUTPUT REQUESTS
** 
*Restart, write, number interval=1, time marks=NO
** 
** FIELD OUTPUT: F-Output-1
** 
*Output, field, variable=PRESELECT
** 
** HISTORY OUTPUT: H-Output-1
** 
*Output, history, variable=PRESELECT
*End Step
