*Heading
** Job name: j-benchmark-implicit-angle Model name: Model-1
** Generated by: Abaqus/CAE 6.14-1
*Preprint, echo=NO, model=NO, history=NO, contact=NO
**
** PARTS
**
*Part, name=Plate
*End Part
**  
**
** ASSEMBLY
**
*Assembly, name=Assembly
**  
*Instance, name=SENT-1, part=Plate
*Node
      1,  0.366025418,   1.36602545
      2, -0.133974597,    2.2320509
      3,          -1.,   1.73205078
      4, -0.153589845,   1.06602538
      5,         -0.5,  0.866025388
      6,           0.,           0.
      7,  0.866025388,          0.5
      8,  0.341025412,   1.40932667
      9,  0.316025406,    1.4526279
     10,    0.2910254,   1.49592924
     11,  0.266025394,   1.53923047
     12,  0.241025403,   1.58253181
     13,  0.216025397,   1.62583303
     14,  0.191025406,   1.66913426
     15,    0.1660254,    1.7124356
     16,  0.141025409,   1.75573683
     17,  0.116025403,   1.79903805
     18, 0.0910254046,    1.8423394
     19, 0.0660254061,   1.88564062
     20, 0.0410254039,   1.92894197
** ... 849 like lines cut
*Element, type=CPS4R
  1,   1,   8, 140,  75
  2,   8,   9, 141, 140
  3,   9,  10, 142, 141
  4,  10,  11, 143, 142
  5,  11,  12, 144, 143
  6,  12,  13, 145, 144
  7,  13,  14, 146, 145
  8,  14,  15, 147, 146
  9,  15,  16, 148, 147
 10,  16,  17, 149, 148
 11,  17,  18, 150, 149
 12,  18,  19, 151, 150
 13,  19,  20, 152, 151
 14,  20,  21, 153, 152
 15,  21,  22, 154, 153
 16,  22,  23, 155, 154
 17,  23,  24, 156, 155
 18,  24,  25, 157, 156
 19,  25,  26, 158, 157
 20,  26,   2,  27, 158
** ... 780 like lines cut
*Nset, nset=Set-1, generate
   1,  869,    1
*Elset, elset=Set-1, generate
   1,  800,    1
** Section: Section-1
*Solid Section, elset=Set-1, material=Test
,
*End Instance
**  
*Nset, nset=Bottom, instance=SENT-1
   6,   7, 102, 103, 104, 105, 106, 107, 108, 109, 110, 111, 112, 113, 114, 115
 116, 117, 118, 119, 120
*Elset, elset=Bottom, instance=SENT-1, generate
 781,  800,    1
*Nset, nset=Crack-seam, instance=SENT-1
   4,   5,  76,  77,  78,  79,  80,  81,  82, 862, 863, 864, 865, 866, 867, 868
 869,
*Elset, elset=Crack-seam, instance=SENT-1
 241, 261, 281, 301, 321, 341, 361, 381, 413, 414, 415, 416, 417, 418, 419, 420
*Nset, nset=Roller, instance=SENT-1
   3,   5,   6,  46,  47,  48,  49,  50,  51,  52,  53,  54,  55,  56,  57,  58
  59,  60,  61,  62,  63,  64,  83,  84,  85,  86,  87,  88,  89,  90,  91,  92
  93,  94,  95,  96,  97,  98,  99, 100, 101, 869
*Elset, elset=Roller, instance=SENT-1
 381, 382, 383, 384, 385, 386, 387, 388, 389, 390, 391, 392, 393, 394, 395, 396
 397, 398, 399, 400, 420, 440, 460, 480, 500, 520, 540, 560, 580, 600, 620, 640
 660, 680, 700, 720, 740, 760, 780, 800
*Nset, nset=Top, instance=SENT-1
  2,  3, 27, 28, 29, 30, 31, 32, 33, 34, 35, 36, 37, 38, 39, 40
 41, 42, 43, 44, 45
*Elset, elset=Top, instance=SENT-1, generate
  20,  400,   20
*Nset, nset=_PickedSet12, internal, instance=SENT-1
   4,   5,  76,  77,  78,  79,  80,  81,  82, 862, 863, 864, 865, 866, 867, 868
 869,
*Elset, elset=_PickedSet12, internal, instance=SENT-1
 241, 261, 281, 301, 321, 341, 361, 381, 413, 414, 415, 416, 417, 418, 419, 420
*Nset, nset=_PickedSet13, internal, instance=SENT-1
 4,
*Nset, nset=_T-Rotated-csys, internal
Bottom, 
Roller, 
Top, 
*Transform, nset=_T-Rotated-csys
0.866025403784439,          0.5,           0.,         -0.5, 0.866025403784439,           0.
*End Assembly
*Amplitude, name=Amp-1
             0.,              0.,             0.5,             0.5,              1.,              1.
** 
** MATERIALS
** 
*Material, name="SENT specimen material"
*Density
7860.,
*Elastic
 2.07e+11, 0.3
*Material, name=Test
*Density
1.,
*Elastic
1.,0.
** ----------------------------------------------------------------
** 
** STEP: Step-1
** 
*Step, name=Step-1, nlgeom=NO
*Dynamic,direct
0.2,10.,
** 
** BOUNDARY CONDITIONS
** 
** Name: Bottom BC Type: Displacement/Rotation
*Boundary
Bottom, 1, 1
Bottom, 2, 2
** Name: Left Type: Symmetry/Antisymmetry/Encastre
*Boundary
Roller, XSYMM
** Name: Top BC Type: Velocity/Angular velocity
*Boundary, type=VELOCITY
Top, 2, 2, 0.0001
** 
** OUTPUT REQUESTS
** 
*Restart, write, number interval=1, time marks=NO
** 
** FIELD OUTPUT: F-Output-1
** 
*Output, field, variable=PRESELECT, number interval=20, time marks=NO
** 
** HISTORY OUTPUT: H-Output-1
** 
*Output, history, variable=PRESELECT, number interval=200, time marks=NO
** 
** HISTORY OUTPUT: H-Output-2
** 
*Contour Integral, crack name=H-Output-2_Crack-1, contours=3, crack tip nodes
_PickedSet12, _PickedSet13, 0.866025, 0.5, 0.
*End Step
