*Heading
** Job name: stress-intensity-factors Model name: Model-1
** Generated by: Abaqus/CAE 6.14-1
*Preprint, echo=NO, model=NO, history=NO, contact=NO
**
** PARTS
**
*Part, name=Plate
*End Part
**  
**
** ASSEMBLY
**
*Assembly, name=Assembly
**  
*Instance, name=SENT-1, part=Plate
*Node
      1,           1.,           1.
      2,           1.,           2.
      3,           0.,           2.
      4,  0.400000006,           1.
      5,           0.,           1.
      6,           0.,           0.
      7,           1.,           0.
      8,           1.,   1.01999998
      9,           1.,   1.03999996
     10,           1.,   1.05999994
     11,           1.,   1.08000004
     12,           1.,   1.10000002
     13,           1.,         1.12
     14,           1.,   1.13999999
     15,           1.,   1.15999997
     16,           1.,   1.17999995
     17,           1.,   1.20000005
     18,           1.,   1.22000003
     19,           1.,   1.24000001
     20,           1.,   1.25999999
** ... 5151 like lines cut
*Element, type=CPS4R
   1,    1,    8,  350,  183
   2,    8,    9,  351,  350
   3,    9,   10,  352,  351
   4,   10,   11,  353,  352
   5,   11,   12,  354,  353
   6,   12,   13,  355,  354
   7,   13,   14,  356,  355
   8,   14,   15,  357,  356
   9,   15,   16,  358,  357
  10,   16,   17,  359,  358
  11,   17,   18,  360,  359
  12,   18,   19,  361,  360
  13,   19,   20,  362,  361
  14,   20,   21,  363,  362
  15,   21,   22,  364,  363
  16,   22,   23,  365,  364
  17,   23,   24,  366,  365
  18,   24,   25,  367,  366
  19,   25,   26,  368,  367
  20,   26,   27,  369,  368
** ... 4980 like lines cut
*Nset, nset=Set-1, generate
    1,  5171,     1
*Elset, elset=Set-1, generate
    1,  5000,     1
** Section: Section-1
*Solid Section, elset=Set-1, material=Test
,
*End Instance
**  
*Nset, nset=Bottom, instance=SENT-1
   6,   7, 252, 253, 254, 255, 256, 257, 258, 259, 260, 261, 262, 263, 264, 265
 266, 267, 268, 269, 270, 271, 272, 273, 274, 275, 276, 277, 278, 279, 280, 281
 282, 283, 284, 285, 286, 287, 288, 289, 290, 291, 292, 293, 294, 295, 296, 297
 298, 299, 300
*Elset, elset=Bottom, instance=SENT-1, generate
 4951,  5000,     1
*Nset, nset=Crack-seam, instance=SENT-1
    4,    5,  184,  185,  186,  187,  188,  189,  190,  191,  192,  193,  194,  195,  196,  197
  198,  199,  200,  201,  202, 5152, 5153, 5154, 5155, 5156, 5157, 5158, 5159, 5160, 5161, 5162
 5163, 5164, 5165, 5166, 5167, 5168, 5169, 5170, 5171
*Elset, elset=Crack-seam, instance=SENT-1
 1501, 1551, 1601, 1651, 1701, 1751, 1801, 1851, 1901, 1951, 2001, 2051, 2101, 2151, 2201, 2251
 2301, 2351, 2401, 2451, 2531, 2532, 2533, 2534, 2535, 2536, 2537, 2538, 2539, 2540, 2541, 2542
 2543, 2544, 2545, 2546, 2547, 2548, 2549, 2550
*Nset, nset=Roller, instance=SENT-1
    3,    5,    6,  106,  107,  108,  109,  110,  111,  112,  113,  114,  115,  116,  117,  118
  119,  120,  121,  122,  123,  124,  125,  126,  127,  128,  129,  130,  131,  132,  133,  134
  135,  136,  137,  138,  139,  140,  141,  142,  143,  144,  145,  146,  147,  148,  149,  150
  151,  152,  153,  154,  203,  204,  205,  206,  207,  208,  209,  210,  211,  212,  213,  214
  215,  216,  217,  218,  219,  220,  221,  222,  223,  224,  225,  226,  227,  228,  229,  230
  231,  232,  233,  234,  235,  236,  237,  238,  239,  240,  241,  242,  243,  244,  245,  246
  247,  248,  249,  250,  251, 5171
*Elset, elset=Roller, instance=SENT-1
 2451, 2452, 2453, 2454, 2455, 2456, 2457, 2458, 2459, 2460, 2461, 2462, 2463, 2464, 2465, 2466
 2467, 2468, 2469, 2470, 2471, 2472, 2473, 2474, 2475, 2476, 2477, 2478, 2479, 2480, 2481, 2482
 2483, 2484, 2485, 2486, 2487, 2488, 2489, 2490, 2491, 2492, 2493, 2494, 2495, 2496, 2497, 2498
 2499, 2500, 2550, 2600, 2650, 2700, 2750, 2800, 2850, 2900, 2950, 3000, 3050, 3100, 3150, 3200
 3250, 3300, 3350, 3400, 3450, 3500, 3550, 3600, 3650, 3700, 3750, 3800, 3850, 3900, 3950, 4000
 4050, 4100, 4150, 4200, 4250, 4300, 4350, 4400, 4450, 4500, 4550, 4600, 4650, 4700, 4750, 4800
 4850, 4900, 4950, 5000
*Nset, nset=Top, instance=SENT-1
   2,   3,  57,  58,  59,  60,  61,  62,  63,  64,  65,  66,  67,  68,  69,  70
  71,  72,  73,  74,  75,  76,  77,  78,  79,  80,  81,  82,  83,  84,  85,  86
  87,  88,  89,  90,  91,  92,  93,  94,  95,  96,  97,  98,  99, 100, 101, 102
 103, 104, 105
*Elset, elset=Top, instance=SENT-1, generate
   50,  2500,    50
*Nset, nset=_PickedSet12, internal, instance=SENT-1
    4,    5,  184,  185,  186,  187,  188,  189,  190,  191,  192,  193,  194,  195,  196,  197
  198,  199,  200,  201,  202, 5152, 5153, 5154, 5155, 5156, 5157, 5158, 5159, 5160, 5161, 5162
 5163, 5164, 5165, 5166, 5167, 5168, 5169, 5170, 5171
*Elset, elset=_PickedSet12, internal, instance=SENT-1
 1501, 1551, 1601, 1651, 1701, 1751, 1801, 1851, 1901, 1951, 2001, 2051, 2101, 2151, 2201, 2251
 2301, 2351, 2401, 2451, 2531, 2532, 2533, 2534, 2535, 2536, 2537, 2538, 2539, 2540, 2541, 2542
 2543, 2544, 2545, 2546, 2547, 2548, 2549, 2550
*Nset, nset=_PickedSet13, internal, instance=SENT-1
 4,
*End Assembly
** 
** MATERIALS
** 
*Material, name="SENT specimen material"
*Density
7860.,
*Elastic
 2.07e+11, 0.3
*Material, name=Test
*Density
1.,
*Elastic
1.,0.
** ----------------------------------------------------------------
** 
** STEP: Step-1
** 
*Step, name=Step-1, nlgeom=NO
*Dynamic
1.,1.,1e-05
** 
** BOUNDARY CONDITIONS
** 
** Name: Bottom BC Type: Displacement/Rotation
*Boundary
Bottom, 1, 1
Bottom, 2, 2
** Name: Left BC Type: Displacement/Rotation
*Boundary
Roller, 1, 1
** Name: Top BC Type: Velocity/Angular velocity
*Boundary, type=VELOCITY
Top, 2, 2, 0.0005
** 
** OUTPUT REQUESTS
** 
*Restart, write, number interval=1, time marks=NO
** 
** FIELD OUTPUT: F-Output-1
** 
*Output, field, variable=PRESELECT, number interval=20, time marks=NO
** 
** HISTORY OUTPUT: H-Output-1
** 
*Output, history, variable=PRESELECT, number interval=200, time marks=NO
** 
** HISTORY OUTPUT: H-Output-2
** 
*Contour Integral, crack name=H-Output-2_Crack-1, contours=5, crack tip nodes, frequency=0
_PickedSet12, _PickedSet13, 1., 0., 0.
*End Step
