*Heading
** Job name: three-point-bending Model name: Model-1
** Generated by: Abaqus/CAE 6.14-1
*Preprint, echo=NO, model=NO, history=NO, contact=NO
**
** PARTS
**
*Part, name=Plate
*Node
      1,           0.,           0.
      2, 0.0987654328,           0.
      3,  0.197530866,           0.
      4,  0.296296299,           0.
      5,  0.395061731,           0.
      6,  0.493827164,           0.
      7,  0.592592597,           0.
      8,   0.69135803,           0.
      9,  0.790123463,           0.
     10,  0.888888896,           0.
     11,  0.987654328,           0.
     12,    1.0864197,           0.
     13,   1.18518519,           0.
     14,   1.28395057,           0.
     15,   1.38271606,           0.
     16,   1.48148143,           0.
     17,   1.58024693,           0.
     18,    1.6790123,           0.
     19,   1.77777779,           0.
     20,   1.87654316,           0.
** ... 2030 like lines cut
*Element, type=CPS4R
   1,    1,    2,   84,   83
   2,    2,    3,   85,   84
   3,    3,    4,   86,   85
   4,    4,    5,   87,   86
   5,    5,    6,   88,   87
   6,    6,    7,   89,   88
   7,    7,    8,   90,   89
   8,    8,    9,   91,   90
   9,    9,   10,   92,   91
  10,   10,   11,   93,   92
  11,   11,   12,   94,   93
  12,   12,   13,   95,   94
  13,   13,   14,   96,   95
  14,   14,   15,   97,   96
  15,   15,   16,   98,   97
  16,   16,   17,   99,   98
  17,   17,   18,  100,   99
  18,   18,   19,  101,  100
  19,   19,   20,  102,  101
  20,   20,   21,  103,  102
** ... 1924 like lines cut
*Nset, nset=Set-1, generate
    1,  2050,     1
*Elset, elset=Set-1, generate
    1,  1944,     1
*Elset, elset=Crack, generate
  41,  365,   81
*Nset, nset=Top
 1927, 1928, 2008, 2009, 2010, 2011
*Nset, nset=Right
  80,  81,  82, 163, 164, 246
*Nset, nset=Left
   1,   2,   3,  83,  84, 165
** Section: Section-1
*Solid Section, elset=Set-1, material=Test
,
*End Part
**  
**
** ASSEMBLY
**
*Assembly, name=Assembly
**  
*Instance, name=Plate-1, part=Plate
*End Instance
**  
*End Assembly
** 
** MATERIALS
** 
*Material, name=Test
*Density
1.,
*Elastic
1.,0.
** ----------------------------------------------------------------
** 
** STEP: Step-1
** 
*Step, name=Step-1, nlgeom=YES
*Dynamic, Explicit
, 1.
*Bulk Viscosity
0., 0.
** 
** OUTPUT REQUESTS
** 
*Restart, write, number interval=1, time marks=NO
** 
** FIELD OUTPUT: F-Output-1
** 
*Output, field, variable=PRESELECT
** 
** HISTORY OUTPUT: H-Output-1
** 
*Output, history, variable=PRESELECT
*End Step
