*Heading
** Job name: Asymm-XFEM Model name: Model-1
** Generated by: Abaqus/CAE 6.14-1
*Preprint, echo=NO, model=NO, history=NO, contact=NO
**
** PARTS
**
*Part, name=Assymetric-plate
*End Part
**  
**
** ASSEMBLY
**
*Assembly, name=Assembly
**  
*Instance, name=Assymetric-plate-1, part=Assymetric-plate
*Node
      1,           1.,           0.
      2,           1.,        2.375
      3,           0.,        2.375
      4,           0.,           0.
      5,           1.,        3.125
      6,           0.,        3.125
      7,           1.,        4.375
      8,           0.,        4.375
      9,           1.,        5.125
     10,           0.,        5.125
     11,           1.,        6.375
     12,           0.,        6.375
     13,           1.,        7.125
     14,           0.,        7.125
     15,           1.,           8.
     16,           0.,           8.
     17,          19.,           8.
     18,          19.,        7.125
     19,          20.,        7.125
     20,          20.,           8.
** ... 19185 like lines cut
*Element, type=CPS4R
  1,    1,   97, 2581,  198
  2,   97,   98, 2582, 2581
  3,   98,   99, 2583, 2582
  4,   99,  100, 2584, 2583
  5,  100,  101, 2585, 2584
  6,  101,  102, 2586, 2585
  7,  102,  103, 2587, 2586
  8,  103,  104, 2588, 2587
  9,  104,  105, 2589, 2588
 10,  105,  106, 2590, 2589
 11,  106,  107, 2591, 2590
 12,  107,  108, 2592, 2591
 13,  108,  109, 2593, 2592
 14,  109,  110, 2594, 2593
 15,  110,  111, 2595, 2594
 16,  111,  112, 2596, 2595
 17,  112,  113, 2597, 2596
 18,  113,  114, 2598, 2597
 19,  114,  115, 2599, 2598
 20,  115,  116, 2600, 2599
** ... 18831 like lines cut
*Nset, nset=Refinement-region
    3,    4,    6,    8,   10,   24,   26,   28,   30,   34,   35,   37,   39,   41,   45,   46
   48,   49,   50,   51,   52,   54,   55,   56,   57,   58,   59,   60,   61,   62,   63,   64
   65,   66,   67,   72,   73,   74,   75,   77,   78,   83,   84,   85,   86,   87,   89,   93
   94,  148,  149,  150,  151,  152,  153,  154,  155,  156,  157,  158,  159,  160,  161,  162
  163,  164,  165,  166,  167,  168,  169,  170,  171,  172,  173,  174,  175,  176,  177,  178
  179,  180,  181,  182,  183,  184,  185,  186,  187,  188,  189,  190,  191,  192,  193,  194
  217,  218,  219,  220,  221,  222,  223,  224,  225,  226,  227,  228,  229,  230,  259,  260
  261,  262,  263,  264,  265,  266,  267,  268,  269,  270,  271,  272,  273,  274,  275,  276
  277,  278,  279,  280,  281,  282,  301,  302,  303,  304,  305,  306,  307,  308,  309,  310
  311,  312,  313,  314,  403,  404,  405,  406,  407,  408,  409,  410,  411,  412,  413,  414
  415,  416,  445,  446,  447,  448,  449,  450,  451,  452,  453,  454,  455,  456,  457,  458
  459,  460,  461,  462,  463,  464,  465,  466,  467,  468,  487,  488,  489,  490,  491,  492
  493,  494,  495,  496,  497,  498,  499,  500,  696,  697,  698,  699,  700,  701,  702,  703
  704,  705,  706,  707,  708,  709,  710,  711,  712,  713,  714,  715,  716,  717,  718,  719
  720,  721,  722,  723,  724,  725,  726,  727,  728,  729,  730,  731,  732,  733,  734,  735
  736,  737,  738,  739,  740,  741,  742,  783,  784,  785,  786,  787,  788,  789,  790,  791
  792,  793,  794,  795,  796,  834,  835,  836,  837,  838,  839,  840,  841,  842,  843,  844
  845,  846,  847,  848,  849,  850,  851,  852,  853,  854,  855,  856,  857,  885,  886,  887
  888,  889,  890,  891,  892,  893,  894,  895,  896,  897,  898, 1106, 1107, 1108, 1109, 1110
 1111, 1112, 1113, 1114, 1115, 1116, 1117, 1118, 1119, 1120, 1121, 1122, 1123, 1124, 1125, 1126
** ... 56 like lines cut
*Elset, elset=Refinement-region
   193,   194,   195,   196,   197,   198,   199,   200,   201,   202,   203,   204,   205,   206,   207,   208
   209,   210,   211,   212,   213,   214,   215,   216,   217,   218,   219,   220,   221,   222,   223,   224
   225,   226,   227,   228,   229,   230,   231,   232,   233,   234,   235,   236,   237,   238,   239,   240
   301,   302,   303,   304,   305,   306,   307,   308,   309,   310,   311,   312,   313,   314,   315,   416
   417,   418,   419,   420,   421,   422,   423,   424,   425,   426,   427,   428,   429,   430,   431,   432
   433,   434,   435,   436,   437,   438,   439,   440,   501,   502,   503,   504,   505,   506,   507,   508
   509,   510,   511,   512,   513,   514,   515,   711,   712,   713,   714,   715,   716,   717,   718,   719
   720,   721,   722,   723,   724,   725,   826,   827,   828,   829,   830,   831,   832,   833,   834,   835
   836,   837,   838,   839,   840,   841,   842,   843,   844,   845,   846,   847,   848,   849,   850,   911
   912,   913,   914,   915,   916,   917,   918,   919,   920,   921,   922,   923,   924,   925,  3710,  3711
  3712,  3713,  3714,  3715,  3716,  3717,  3718,  3719,  3720,  3721,  3722,  3723,  3724,  3725,  3726,  3727
  3728,  3729,  3730,  3731,  3732,  3733,  3734,  3735,  3736,  3737,  3738,  3739,  3740,  3741,  3742,  3743
  3744,  3745,  3746,  3747,  3748,  3749,  3750,  3751,  3752,  3753,  3754,  3755,  3756,  3757,  3953,  3954
  3955,  3956,  3957,  3958,  3959,  3960,  3961,  3962,  3963,  3964,  3965,  3966,  3967,  4293,  4294,  4295
  4296,  4297,  4298,  4299,  4300,  4301,  4302,  4303,  4304,  4305,  4306,  4307,  4308,  4309,  4310,  4311
  4312,  4313,  4314,  4315,  4316,  4317,  4513,  4514,  4515,  4516,  4517,  4518,  4519,  4520,  4521,  4522
  4523,  4524,  4525,  4526,  4527,  4972,  5019,  5020,  5067,  5068,  5115,  5116,  5163,  5164,  5211,  5212
  5259,  5260,  5307,  5308,  5355,  5356,  5403,  5404,  5451,  5452,  5499,  5500,  5547,  5548,  5595,  5596
  5643,  5644,  5691,  5692,  5739,  5740,  5787,  5788,  5835,  5836,  5883,  5884,  5885,  5886,  5887,  5888
  5889,  5890,  5891,  5892,  5893,  5894,  5895,  5896,  5897,  5898,  5899,  5900,  5901,  5902,  5903,  5904
** ... 106 like lines cut
*Nset, nset=Plate-section, generate
     1,  19205,      1
*Elset, elset=Plate-section, generate
     1,  18851,      1
** Section: Section-1
*Solid Section, elset=Plate-section, material=Test
,
*End Instance
**  
*Nset, nset=Right, instance=Assymetric-plate-1
 31,
*Nset, nset=Set-5, instance=Assymetric-plate-1
   46,   47, 1060, 1061, 1062, 1063, 1064, 1065, 1066, 1067, 1068, 1069, 1070, 1071, 1072, 1073
 1074, 1075, 1076, 1077, 1078
*Elset, elset=Set-5, instance=Assymetric-plate-1
  4972,  4973,  4974,  4975,  4976,  4977,  4978,  4979,  4980,  4981,  4982,  4983,  4984,  4985,  4986,  4987
  4988,  4989,  4990,  4991, 12815, 12847, 12879, 12911, 12943, 12975, 13007, 13039, 13071, 13103, 13135, 13167
 13199, 13231, 13263, 13295, 13327, 13359, 13391, 13423
*Nset, nset=Set-10, instance=Assymetric-plate-1
 1,
*Nset, nset=Set-12, instance=Assymetric-plate-1
 42,
*Nset, nset=_PickedSet38, internal, instance=Assymetric-plate-1
    34,    35,    37,    39,    41,    45,    46,    47,    48,    49,    50,    51,    52,    53,    54,    55
    56,    57,    58,    59,    60,    61,    62,    63,    65,    66,    67,    68,    69,    70,    71,    72
    73,    74,    75,    76,    77,    78,    79,    80,    81,    82,    83,    84,    85,    86,    87,    88
    89,    90,    91,    92,    93,    94,    95,    96,   696,   697,   698,   699,   700,   701,   702,   703
   704,   705,   706,   707,   708,   709,   710,   711,   712,   713,   714,   715,   716,   717,   718,   719
   720,   721,   722,   723,   724,   725,   726,   727,   728,   729,   730,   731,   732,   733,   734,   735
   736,   737,   738,   739,   740,   741,   742,   783,   784,   785,   786,   787,   788,   789,   790,   791
   792,   793,   794,   795,   796,   834,   835,   836,   837,   838,   839,   840,   841,   842,   843,   844
   845,   846,   847,   848,   849,   850,   851,   852,   853,   854,   855,   856,   857,   885,   886,   887
   888,   889,   890,   891,   892,   893,   894,   895,   896,   897,   898,  1008,  1009,  1010,  1011,  1012
  1060,  1061,  1062,  1063,  1064,  1065,  1066,  1067,  1068,  1069,  1070,  1071,  1072,  1073,  1074,  1075
  1076,  1077,  1078,  1079,  1080,  1081,  1082,  1083,  1084,  1085,  1086,  1087,  1088,  1089,  1090,  1091
  1092,  1093,  1094,  1095,  1096,  1097,  1098,  1099,  1100,  1101,  1102,  1103,  1104,  1105,  1106,  1107
  1108,  1109,  1110,  1111,  1112,  1113,  1114,  1115,  1116,  1117,  1118,  1119,  1120,  1121,  1122,  1123
  1124,  1125,  1126,  1127,  1128,  1129,  1130,  1131,  1132,  1133,  1134,  1135,  1136,  1137,  1138,  1139
  1140,  1141,  1142,  1143,  1144,  1145,  1146,  1147,  1148,  1149,  1150,  1151,  1152,  1153,  1154,  1155
  1156,  1157,  1158,  1159,  1160,  1161,  1162,  1163,  1164,  1165,  1166,  1167,  1168,  1169,  1170,  1171
  1172,  1173,  1174,  1175,  1176,  1177,  1178,  1179,  1180,  1181,  1182,  1183,  1184,  1185,  1186,  1187
  1188,  1189,  1190,  1191,  1192,  1193,  1194,  1195,  1196,  1197,  1198,  1199,  1200,  1201,  1202,  1203
  1204,  1205,  1206,  1207,  1208,  1209,  1210,  1211,  1212,  1213,  1214,  1215,  1216,  1217,  1218,  1219
** ... 599 like lines cut
*Elset, elset=_PickedSet38, internal, instance=Assymetric-plate-1
  4972,  4973,  4974,  4975,  4976,  4977,  4978,  4979,  4980,  4981,  4982,  4983,  4984,  4985,  4986,  4987
  4988,  4989,  4990,  4991,  4992,  4993,  4994,  4995,  4996,  4997,  4998,  4999,  5000,  5001,  5002,  5003
  5004,  5005,  5006,  5007,  5008,  5009,  5010,  5011,  5012,  5013,  5014,  5015,  5016,  5017,  5018,  5019
  5020,  5021,  5022,  5023,  5024,  5025,  5026,  5027,  5028,  5029,  5030,  5031,  5032,  5033,  5034,  5035
  5036,  5037,  5038,  5039,  5040,  5041,  5042,  5043,  5044,  5045,  5046,  5047,  5048,  5049,  5050,  5051
  5052,  5053,  5054,  5055,  5056,  5057,  5058,  5059,  5060,  5061,  5062,  5063,  5064,  5065,  5066,  5067
  5068,  5069,  5070,  5071,  5072,  5073,  5074,  5075,  5076,  5077,  5078,  5079,  5080,  5081,  5082,  5083
  5084,  5085,  5086,  5087,  5088,  5089,  5090,  5091,  5092,  5093,  5094,  5095,  5096,  5097,  5098,  5099
  5100,  5101,  5102,  5103,  5104,  5105,  5106,  5107,  5108,  5109,  5110,  5111,  5112,  5113,  5114,  5115
  5116,  5117,  5118,  5119,  5120,  5121,  5122,  5123,  5124,  5125,  5126,  5127,  5128,  5129,  5130,  5131
  5132,  5133,  5134,  5135,  5136,  5137,  5138,  5139,  5140,  5141,  5142,  5143,  5144,  5145,  5146,  5147
  5148,  5149,  5150,  5151,  5152,  5153,  5154,  5155,  5156,  5157,  5158,  5159,  5160,  5161,  5162,  5163
  5164,  5165,  5166,  5167,  5168,  5169,  5170,  5171,  5172,  5173,  5174,  5175,  5176,  5177,  5178,  5179
  5180,  5181,  5182,  5183,  5184,  5185,  5186,  5187,  5188,  5189,  5190,  5191,  5192,  5193,  5194,  5195
  5196,  5197,  5198,  5199,  5200,  5201,  5202,  5203,  5204,  5205,  5206,  5207,  5208,  5209,  5210,  5211
  5212,  5213,  5214,  5215,  5216,  5217,  5218,  5219,  5220,  5221,  5222,  5223,  5224,  5225,  5226,  5227
  5228,  5229,  5230,  5231,  5232,  5233,  5234,  5235,  5236,  5237,  5238,  5239,  5240,  5241,  5242,  5243
  5244,  5245,  5246,  5247,  5248,  5249,  5250,  5251,  5252,  5253,  5254,  5255,  5256,  5257,  5258,  5259
  5260,  5261,  5262,  5263,  5264,  5265,  5266,  5267,  5268,  5269,  5270,  5271,  5272,  5273,  5274,  5275
  5276,  5277,  5278,  5279,  5280,  5281,  5282,  5283,  5284,  5285,  5286,  5287,  5288,  5289,  5290,  5291
** ... 582 like lines cut
*Nset, nset=_PickedSet39, internal, instance=Assymetric-plate-1
   46,   47, 1060, 1061, 1062, 1063, 1064, 1065, 1066, 1067, 1068, 1069, 1070, 1071, 1072, 1073
 1074, 1075, 1076, 1077, 1078
*Elset, elset=_PickedSet39, internal, instance=Assymetric-plate-1
  4972,  4973,  4974,  4975,  4976,  4977,  4978,  4979,  4980,  4981,  4982,  4983,  4984,  4985,  4986,  4987
  4988,  4989,  4990,  4991, 12815, 12847, 12879, 12911, 12943, 12975, 13007, 13039, 13071, 13103, 13135, 13167
 13199, 13231, 13263, 13295, 13327, 13359, 13391, 13423
*Enrichment, name=Crack-1, type=PROPAGATION CRACK, elset=_PickedSet38
*End Assembly
** 
** MATERIALS
** 
*Material, name=Test
*Damage Initiation, criterion=MAXPE
 2e-07,
*Damage Evolution, type=DISPLACEMENT
 2e-07,
*Elastic
1.,0.
*Initial Conditions, type=ENRICHMENT
Assymetric-plate-1.4991, 1,Crack-1, 1e-06, -0.05
Assymetric-plate-1.4991, 2,Crack-1, 1e-06, 0.
Assymetric-plate-1.4991, 3,Crack-1, -0.05, -0.000520826
Assymetric-plate-1.4991, 4,Crack-1, -0.05, -0.0504948
Assymetric-plate-1.4990, 1,Crack-1, 1e-06
Assymetric-plate-1.4990, 2,Crack-1, 1e-06
Assymetric-plate-1.4990, 3,Crack-1, -0.05
Assymetric-plate-1.4990, 4,Crack-1, -0.05
Assymetric-plate-1.4989, 1,Crack-1, 1e-06
Assymetric-plate-1.4989, 2,Crack-1, 1e-06
Assymetric-plate-1.4989, 3,Crack-1, -0.05
Assymetric-plate-1.4989, 4,Crack-1, -0.05
Assymetric-plate-1.4988, 1,Crack-1, 1e-06
Assymetric-plate-1.4988, 2,Crack-1, 1e-06
Assymetric-plate-1.4988, 3,Crack-1, -0.05
Assymetric-plate-1.4988, 4,Crack-1, -0.05
Assymetric-plate-1.4987, 1,Crack-1, 1e-06
Assymetric-plate-1.4987, 2,Crack-1, 1e-06
Assymetric-plate-1.4987, 3,Crack-1, -0.05
Assymetric-plate-1.4987, 4,Crack-1, -0.05
** ... 60 like lines cut
** ----------------------------------------------------------------
** 
** STEP: Step-1
** 
*Step, name=Step-1, nlgeom=NO
*Static
100., 100., 0.001, 100.
** 
** BOUNDARY CONDITIONS
** 
** Name: Left Type: Displacement/Rotation
*Boundary
Set-10, 1, 1
Set-10, 2, 2
** Name: Right Type: Displacement/Rotation
*Boundary
Right, 2, 2
** Name: Top Type: Velocity/Angular velocity
*Boundary, type=VELOCITY
Set-12, 2, 2, -0.0001
** 
** OUTPUT REQUESTS
** 
*Restart, write, number interval=1, time marks=NO
** 
** FIELD OUTPUT: F-Output-1
** 
*Output, field, variable=PRESELECT, number interval=20, time marks=NO
** 
** HISTORY OUTPUT: H-Output-1
** 
*Output, history, variable=PRESELECT, number interval=200, time marks=NO
*End Step
